19
Iteration:  1157
 C        -1.176081         0.706911         2.302701
 C         0.241914         0.986527         1.773760
 C         0.927600         2.328949         1.543396
 C         2.193961         1.400381         1.286578
 O         1.974443         0.795168         0.046714
 C         0.849312         0.046787         0.681008
 C         0.185195        -1.178106         0.142024
 C         1.532239         0.270294         2.037681
 O         2.099214        -0.701639         2.844841
 H        -1.399073         1.655951         2.795728
 H        -1.998103         0.479257         1.645485
 H        -1.258284        -0.012950         3.088148
 H         0.495150         3.040709         0.854821
 H         1.208698         2.881594         2.501681
 H         3.190190         1.895861         1.601436
 H        -0.549169        -1.734523         0.848512
 H        -0.457799        -1.047064        -0.760015
 H         0.990084        -1.752011        -0.135372
 H         2.116908        -0.407572         3.789234
