19
Iteration:  1266
 C        -1.073293         0.693487         2.401963
 C         0.229590         0.978757         1.737366
 C         0.932072         2.285594         1.567006
 C         2.119129         1.471373         1.205131
 O         1.938413         0.766747        -0.029263
 C         0.881046        -0.044884         0.694119
 C         0.241134        -1.166903        -0.017339
 C         1.556899         0.214378         2.003814
 O         2.044452        -0.559773         3.077471
 H        -0.978738         0.271143         3.409403
 H        -1.661397         1.596884         2.424813
 H        -1.595991        -0.049985         1.833903
 H         0.671773         2.791240         0.681693
 H         1.074829         2.812323         2.493925
 H         3.139481         1.836989         1.561765
 H        -0.307383        -1.768423         0.798124
 H        -0.512486        -0.650744        -0.685698
 H         0.824381        -1.786250        -0.603510
 H         1.547174        -0.306312         3.914954
