19
Iteration:  3588
 C        -1.248773         0.820230         2.230830
 C         0.171273         0.976055         1.734568
 C         0.927679         2.311261         1.489238
 C         2.151326         1.496471         1.126348
 O         1.790768         0.756374        -0.066350
 C         0.948348        -0.044456         0.813706
 C         0.499164        -1.268811         0.277488
 C         1.499195         0.270527         2.093503
 O         2.093624        -0.657241         2.998723
 H        -1.300755         0.855752         3.287409
 H        -1.811875         1.705486         1.913439
 H        -1.907248         0.097846         1.911057
 H         0.549609         3.042873         0.712079
 H         1.103356         2.849225         2.520341
 H         3.231614         1.659102         0.979362
 H         0.402004        -2.143446         0.913372
 H        -0.452035        -1.194569        -0.083363
 H         1.173237        -1.602045        -0.484353
 H         2.042390        -0.354395         3.929873
