19
Iteration:  1208
 C        -1.010185         0.771300         2.446296
 C         0.316639         0.961877         1.777960
 C         0.954913         2.339324         1.607074
 C         2.211491         1.476446         1.115320
 O         1.777312         0.857610        -0.075787
 C         0.843064         0.008292         0.693561
 C         0.458780        -1.263091         0.057338
 C         1.595198         0.259553         2.021959
 O         1.792226        -0.753161         3.032639
 H        -1.201140         1.131339         3.489227
 H        -1.692901         1.318332         1.762868
 H        -1.450502        -0.214132         2.311781
 H         0.668334         3.181995         0.920452
 H         0.864288         2.856802         2.517610
 H         3.249417         1.841672         1.084618
 H         0.300508        -1.977175         0.828683
 H        -0.573672        -1.221902        -0.442024
 H         1.290745        -1.693326        -0.542230
 H         1.548132        -0.301864         3.829865
