19
Iteration:  3409charge 0 multiplicity 1
 C        -1.156082         0.728160         2.244061
 C         0.230330         0.920421         1.804311
 C         0.956753         2.305992         1.460041
 C         2.179804         1.466059         1.212466
 O         1.837868         0.717152        -0.071709
 C         0.857945        -0.027313         0.795425
 C         0.297071        -1.212589         0.152842
 C         1.553027         0.280650         2.126257
 O         2.129564        -0.486459         3.072403
 H        -1.545598         1.220651         3.249339
 H        -1.814667         0.988708         1.411324
 H        -1.323149        -0.371523         2.424063
 H         0.454928         2.800632         0.522989
 H         0.782877         3.060004         2.406423
 H         3.174209         1.921253         1.172623
 H        -0.641558        -1.450303         0.610398
 H         0.121870        -0.807297        -0.915683
 H         1.076420        -1.975998         0.168114
 H         1.776732        -1.368216         3.110967
