19
Iteration:  3556
 C        -1.105288         0.693613         2.339224
 C         0.235006         1.009250         1.764747
 C         0.927150         2.340872         1.471609
 C         2.180593         1.550725         1.241027
 O         1.921900         0.774102        -0.050459
 C         0.908595        -0.031253         0.661600
 C         0.372251        -1.343449         0.247939
 C         1.481251         0.211828         2.008237
 O         1.886586        -0.578237         3.009101
 H        -1.184138         0.901729         3.369567
 H        -1.853702         1.475383         1.871940
 H        -1.480381        -0.306113         2.147485
 H         0.491750         2.893635         0.516794
 H         0.957970         3.116229         2.410977
 H         3.224313         1.905506         1.181786
 H         0.465607        -2.035469         1.151239
 H        -0.629469        -1.252079        -0.054794
 H         1.045348        -1.683445        -0.552361
 H         2.586052        -0.089603         3.512549
