19
Iteration:  2055
 C        -1.199530         0.649382         2.152634
 C         0.282462         0.940218         1.938862
 C         0.952450         2.345122         1.496976
 C         2.170890         1.531457         1.260367
 O         1.792584         0.744712         0.012071
 C         0.999482        -0.037244         0.757857
 C         0.109012        -1.112272         0.100008
 C         1.595058         0.187721         2.105997
 O         2.199374        -0.620732         2.990460
 H        -1.814787         0.269239         1.246710
 H        -1.393983        -0.078745         2.933915
 H        -1.618251         1.596201         2.546456
 H         0.552552         2.703094         0.495888
 H         0.990159         3.229083         2.182055
 H         3.239839         1.837362         0.970864
 H        -0.706550        -1.452033         0.743022
 H        -0.424111        -0.747205        -0.816847
 H         0.840160        -1.960550        -0.228219
 H         2.115268        -0.197070         3.851417
