19
Iteration:  1900charge 0 multiplicity 1
 C        -1.123458         0.607893         2.236910
 C         0.235335         0.973672         1.685842
 C         0.893460         2.314989         1.498588
 C         2.205441         1.511169         1.208816
 O         1.859006         0.701013        -0.003277
 C         0.900838         0.002639         0.756687
 C         0.174053        -1.167783         0.120483
 C         1.619761         0.250428         2.070285
 O         2.089779        -0.548942         3.091183
 H        -1.619938         1.545947         2.581183
 H        -1.715764         0.039249         1.609693
 H        -1.144082        -0.022028         3.119500
 H         0.560230         3.100417         0.694090
 H         0.944860         2.761548         2.486435
 H         3.210936         1.850375         1.150877
 H        -0.335219        -1.707729         0.906684
 H        -0.507719        -0.762595        -0.729640
 H         0.891509        -1.872939        -0.389021
 H         2.233150        -0.043208         3.941635
