19
Iteration:  3749charge 0 multiplicity 1
 C        -1.076581         0.714589         2.470880
 C         0.216231         0.973361         1.697392
 C         0.973700         2.308028         1.460365
 C         2.143426         1.475398         1.249240
 O         1.864518         0.780844        -0.088262
 C         0.941050        -0.060954         0.681421
 C         0.348383        -1.302071         0.077216
 C         1.448295         0.293069         2.041291
 O         1.979227        -0.552734         3.037666
 H        -1.347391         1.572139         3.223815
 H        -1.811050         0.388752         1.790482
 H        -0.910541        -0.227612         3.055217
 H         0.638964         3.043799         0.598898
 H         1.012060         2.865719         2.391874
 H         3.188667         1.864882         1.365238
 H        -0.320961        -1.681990         0.856058
 H        -0.374767        -0.936997        -0.746264
 H         1.165784        -1.973003        -0.098560
 H         1.883120        -0.142265         3.939235
