19
Iteration:  2703charge 0 multiplicity 1
 C        -1.172317         0.815135         2.348720
 C         0.220652         0.990880         1.680276
 C         0.959962         2.239694         1.546869
 C         2.197540         1.458267         1.204005
 O         1.775971         0.758752        -0.067301
 C         0.947328        -0.030707         0.697468
 C         0.298365        -1.190516         0.110827
 C         1.582568         0.258935         2.060636
 O         2.093731        -0.583737         3.074314
 H        -2.033334         0.788264         1.690882
 H        -1.132144        -0.243781         2.855961
 H        -1.361678         1.515250         3.210679
 H         0.660210         2.828320         0.637918
 H         1.172771         2.870484         2.489942
 H         3.202988         1.878267         1.373006
 H        -0.357989        -1.713932         0.939243
 H        -0.201361        -0.740828        -0.776644
 H         0.952736        -2.105980        -0.036431
 H         1.337837        -1.131292         3.422640
