19
Iteration:   910
 C        -1.255652         0.714976         2.231382
 C         0.273573         0.874714         1.886039
 C         0.917643         2.292947         1.509863
 C         2.246024         1.499176         1.115852
 O         1.762896         0.819831         0.004729
 C         0.941627        -0.046648         0.786575
 C         0.229064        -1.146267         0.097596
 C         1.680628         0.229426         2.047406
 O         2.145682        -0.637769         3.054560
 H        -1.678876        -0.232838         1.883044
 H        -1.378207         0.551287         3.328804
 H        -1.763038         1.690174         2.000104
 H         0.553425         2.758246         0.538225
 H         1.109654         2.968182         2.341981
 H         3.127773         2.002184         0.927580
 H        -0.701940        -1.483825         0.657842
 H        -0.239272        -0.526611        -0.687982
 H         0.740159        -2.139800        -0.279819
 H         1.867470        -0.284051         3.958820
