19
Iteration:   582charge 0 multiplicity 1
 C        -1.169805         0.732519         2.395883
 C         0.181335         0.923596         1.657671
 C         0.912613         2.268771         1.445263
 C         2.202495         1.510710         1.203472
 O         1.932721         0.710015        -0.038294
 C         1.059773        -0.103246         0.680890
 C         0.203482        -1.236932         0.212680
 C         1.490027         0.283704         2.027590
 O         2.063422        -0.456501         3.031875
 H        -1.001420         0.452346         3.422683
 H        -1.817139         1.636257         2.474540
 H        -1.772754        -0.041922         1.803271
 H         0.532298         2.899517         0.605368
 H         0.958723         2.882393         2.383542
 H         3.221404         1.816095         1.284618
 H        -0.453754        -1.694994         1.092942
 H        -0.381886        -0.978351        -0.664665
 H         0.901052        -2.121322        -0.031524
 H         1.883679        -0.214149         3.951712
