19
Iteration:   271charge 0 multiplicity 1
 C        -1.155504         0.789901         2.448510
 C         0.216944         0.907604         1.796639
 C         0.897481         2.384560         1.494347
 C         2.254274         1.450879         1.160343
 O         1.949021         0.726751        -0.097034
 C         0.962314        -0.044076         0.604371
 C         0.373150        -1.452964         0.269235
 C         1.495596         0.353454         1.962967
 O         1.839971        -0.467489         3.013143
 H        -1.142868         0.786982         3.564775
 H        -1.798962         1.518561         1.897326
 H        -1.740808        -0.076774         2.259548
 H         0.550638         3.063378         0.615902
 H         1.019653         2.882748         2.475304
 H         3.203753         1.801258         1.357711
 H         0.189964        -2.025465         1.080409
 H        -0.596015        -1.420189        -0.344525
 H         1.177271        -1.981079        -0.234202
 H         2.537524        -0.126750         3.533882
