19
Iteration:   898charge 0 multiplicity 1
 C        -1.166846         0.665876         2.317507
 C         0.253109         0.951518         1.803882
 C         0.938184         2.250846         1.470656
 C         2.234820         1.490859         1.180762
 O         1.767978         0.784582        -0.076020
 C         0.941624        -0.023939         0.793858
 C         0.196661        -1.078884         0.068573
 C         1.614848         0.224384         2.104281
 O         2.110856        -0.640798         3.060129
 H        -1.739496         0.038276         1.663609
 H        -1.239007         0.437257         3.383665
 H        -1.752625         1.588154         2.141303
 H         0.428322         2.862488         0.675304
 H         0.909054         2.904694         2.373807
 H         3.198549         1.850367         1.157243
 H        -0.468960        -1.662918         0.820845
 H        -0.182252        -0.978805        -0.934371
 H         1.093267        -1.768229        -0.065968
 H         2.106781        -0.103563         3.874305
