19
Iteration:  3711
 C        -1.035584         0.621684         2.533682
 C         0.228808         0.902182         1.781794
 C         0.928041         2.209044         1.398310
 C         2.185987         1.538920         1.096359
 O         1.925286         0.717995        -0.083404
 C         0.971635        -0.033927         0.713144
 C         0.242481        -1.135960        -0.024872
 C         1.526427         0.322950         2.059807
 O         1.900161        -0.521208         3.191003
 H        -1.502693         1.416595         2.995720
 H        -1.888330         0.280043         1.859691
 H        -0.856736        -0.154603         3.298515
 H         0.551625         2.848459         0.542487
 H         1.047232         2.828649         2.350967
 H         3.142909         2.028550         1.191530
 H        -0.734946        -1.402818         0.443200
 H         0.032994        -0.816573        -0.996431
 H         0.755802        -2.075085        -0.298171
 H         2.231445         0.037689         3.902333
