19
Iteration:  3732
 C        -0.973006         0.664566         2.455536
 C         0.178684         0.976512         1.634277
 C         0.782363         2.349373         1.489128
 C         2.190296         1.445396         1.209435
 O         1.919720         0.685661        -0.002087
 C         0.952257        -0.018739         0.778523
 C         0.275520        -1.208851         0.037864
 C         1.625138         0.264570         1.969153
 O         1.910273        -0.534092         3.060210
 H        -1.208793         1.565014         2.958881
 H        -2.043083         0.406664         2.105458
 H        -0.838195        -0.014283         3.274968
 H         0.460349         3.001002         0.742146
 H         0.854263         2.914364         2.457566
 H         3.207002         1.841179         1.093608
 H        -0.627203        -1.679902         0.552110
 H        -0.115251        -0.942200        -0.892375
 H         1.051437        -1.992875        -0.242875
 H         2.163755         0.038527         3.838717
