19
Iteration:   519charge 0 multiplicity 1
 C        -1.247982         0.858237         2.102129
 C         0.257836         0.985353         1.874313
 C         0.939595         2.252746         1.568360
 C         2.157158         1.464841         1.136972
 O         1.691829         0.764474        -0.063201
 C         0.920343        -0.119480         0.856350
 C         0.313413        -1.336982         0.241343
 C         1.694932         0.289843         2.037372
 O         2.114402        -0.543281         3.039607
 H        -1.504703         0.770668         3.156954
 H        -1.828040         1.562366         1.584675
 H        -1.542416        -0.123559         1.819160
 H         0.505315         2.643344         0.625253
 H         1.150811         3.024855         2.275675
 H         3.130020         1.872625         1.167003
 H        -0.221275        -2.028146         0.755092
 H        -0.201754        -0.973323        -0.582628
 H         1.228889        -1.791051        -0.251460
 H         2.516430         0.007201         3.740938
