19
Iteration:  1135charge 0 multiplicity 1
 C        -1.272078         0.731879         2.272895
 C         0.225493         0.964937         1.739491
 C         0.938674         2.286132         1.600934
 C         2.210629         1.468938         1.310681
 O         1.858741         0.767624        -0.023781
 C         0.960201        -0.024145         0.710172
 C         0.173576        -1.108809         0.111137
 C         1.580346         0.237952         2.055212
 O         2.200692        -0.681975         2.916739
 H        -1.777622         1.633814         2.615520
 H        -1.842122         0.258527         1.481623
 H        -1.313207        -0.000573         3.058125
 H         0.518816         2.947938         0.917173
 H         1.177464         2.975876         2.434856
 H         3.324189         1.615003         1.522894
 H        -0.778593        -1.238910         0.749843
 H        -0.260022        -0.585784        -0.726309
 H         0.538550        -2.034993        -0.076868
 H         2.229770        -0.388675         3.832823
