19
Iteration:   600charge 0 multiplicity 1
 C        -1.068199         0.711209         2.450283
 C         0.261704         1.006356         1.874474
 C         0.821591         2.304705         1.361805
 C         2.190250         1.378677         1.121570
 O         1.927326         0.742705        -0.116511
 C         0.936002        -0.020137         0.714342
 C         0.360704        -1.276945         0.139655
 C         1.591268         0.299154         1.994101
 O         1.900265        -0.556326         3.133692
 H        -1.041886         0.427882         3.541861
 H        -1.694938         1.657884         2.438809
 H        -1.756284         0.120326         1.822567
 H         0.390108         2.805126         0.507943
 H         1.083884         3.107488         2.080898
 H         3.109434         2.055024         1.212534
 H        -0.260444        -1.769098         0.931298
 H        -0.370573        -1.041341        -0.707183
 H         1.099739        -1.958553        -0.146453
 H         1.643765         0.012014         3.874993
