19
Iteration:    35charge 0 multiplicity 1
 C        -1.078610         0.847964         2.408960
 C         0.263240         0.956244         1.740408
 C         0.902926         2.431891         1.414600
 C         2.160732         1.571365         0.984817
 O         1.733377         0.759925        -0.040371
 C         1.021456        -0.075973         0.782298
 C         0.611857        -1.363746         0.224998
 C         1.584957         0.206740         2.025223
 O         1.744130        -0.688178         3.094387
 H        -1.025835         1.409889         3.381557
 H        -1.702908         1.455399         1.779772
 H        -1.618470        -0.153214         2.522398
 H         0.406794         3.013029         0.619764
 H         0.987115         2.946810         2.414268
 H         3.251646         1.787885         0.840781
 H         0.257430        -2.047291         1.119662
 H        -0.203083        -1.243092        -0.405093
 H         1.399289        -1.892030        -0.286555
 H         1.560312        -0.084228         3.878799
