19
Iteration:  4924charge 0 multiplicity 1
 C        -1.099234         0.772005         2.502055
 C         0.214476         0.959279         1.726318
 C         0.863363         2.278411         1.509936
 C         2.198693         1.559993         1.092695
 O         1.802019         0.735123        -0.142632
 C         0.981754         0.027120         0.740831
 C         0.482641        -1.274731         0.151156
 C         1.581402         0.252778         2.022101
 O         1.823878        -0.596658         3.116326
 H        -0.956614         1.179944         3.587730
 H        -2.029691         1.153145         1.885937
 H        -1.406300        -0.283823         2.682598
 H         0.349750         3.106451         0.716779
 H         1.035930         2.622911         2.540904
 H         3.053239         2.331898         0.910608
 H         0.145183        -1.210295        -0.927627
 H         1.312085        -2.093776         0.081103
 H        -0.371320        -1.670261         0.669292
 H         2.725680        -1.006492         3.041318
