19
Iteration:   171charge 0 multiplicity 1
 C        -1.110374         0.694619         2.224514
 C         0.177878         0.942179         1.608375
 C         0.955299         2.267389         1.555605
 C         2.200532         1.456001         1.245635
 O         1.887716         0.665806        -0.021842
 C         0.890887        -0.085265         0.800567
 C         0.107427        -1.241088         0.124958
 C         1.564543         0.196902         2.045188
 O         2.212844        -0.289195         3.119019
 H        -1.600726         1.575871         2.845937
 H        -2.033651         0.509674         1.520987
 H        -1.068759        -0.280963         2.725247
 H         0.694772         2.961387         0.633500
 H         0.822738         2.642531         2.611497
 H         3.136055         1.925023         1.152256
 H        -0.765874        -1.544587         0.613198
 H        -0.134318        -0.893632        -0.962766
 H         0.816122        -2.093153        -0.146225
 H         1.663253        -0.352046         3.906164
