19
Iteration:  2537
 C        -1.063869         0.833619         2.525039
 C         0.267720         0.869522         1.772677
 C         0.959830         2.330310         1.416368
 C         2.209301         1.475569         1.163032
 O         1.765419         0.872053        -0.057122
 C         0.970443        -0.059506         0.708137
 C         0.416755        -1.300185         0.101204
 C         1.646803         0.229039         2.001971
 O         1.765077        -0.639490         3.034165
 H        -1.780627         1.614612         2.230037
 H        -1.633374        -0.091459         2.423485
 H        -0.785066         0.993808         3.555324
 H         0.716651         2.928755         0.497930
 H         0.827470         2.875090         2.379416
 H         3.140617         1.858727         1.202579
 H        -0.001147        -1.982344         0.839574
 H        -0.235264        -1.091518        -0.760923
 H         1.127122        -1.934497        -0.443016
 H         1.804673        -0.193764         3.886284
