19
Iteration:   735
 C        -1.220294         0.745031         2.127506
 C         0.244560         0.964191         1.918597
 C         0.877213         2.286186         1.523749
 C         2.197192         1.451285         1.237079
 O         1.766926         0.717032        -0.122692
 C         0.974334        -0.031594         0.747286
 C         0.203336        -1.162412         0.202719
 C         1.587290         0.287843         2.062877
 O         2.199829        -0.595744         3.088767
 H        -1.618839         1.479215         2.867100
 H        -1.709548         0.627353         1.114698
 H        -1.415226        -0.312168         2.530363
 H         0.436636         2.709185         0.598044
 H         1.011851         3.063935         2.259806
 H         3.178198         1.777003         1.259683
 H        -0.495409        -1.687606         0.896246
 H        -0.272309        -0.865861        -0.716201
 H         0.949246        -1.944787        -0.090583
 H         2.666208        -0.034876         3.700049
