19
Iteration:  2142charge 0 multiplicity 1
 C        -1.084503         0.733566         2.531702
 C         0.255405         0.983855         1.739690
 C         0.950038         2.298023         1.447231
 C         2.178845         1.510208         1.166399
 O         1.810774         0.764694        -0.040752
 C         0.898242         0.006045         0.709694
 C         0.426675        -1.217125         0.133669
 C         1.625775         0.257530         1.972578
 O         1.837596        -0.645446         3.018164
 H        -2.002968         1.341338         2.100255
 H        -1.368575        -0.269939         2.227996
 H        -1.092814         0.868813         3.626007
 H         0.646416         2.897491         0.569439
 H         1.195925         2.774479         2.402781
 H         3.241439         1.835210         0.925068
 H         0.226098        -1.938425         0.890653
 H        -0.384738        -0.971636        -0.535926
 H         1.236636        -1.751500        -0.433416
 H         1.477521        -0.318264         3.882632
