19
Iteration:  1865
 C        -1.201991         0.628836         2.118992
 C         0.237341         1.002363         1.923655
 C         0.889910         2.275501         1.488612
 C         2.148491         1.471011         1.250132
 O         1.783218         0.673106        -0.126039
 C         0.985849        -0.018479         0.771508
 C         0.264489        -1.117549         0.146480
 C         1.647489         0.225082         2.047665
 O         2.165296        -0.524214         3.108721
 H        -1.715416         1.367004         2.852582
 H        -1.763173         1.034928         1.290767
 H        -1.262285        -0.333989         2.536235
 H         0.412268         2.940171         0.637223
 H         1.007628         2.933094         2.394573
 H         3.224334         1.679338         1.282227
 H        -0.528835        -1.596662         0.867946
 H        -0.568529        -0.744407        -0.651425
 H         0.861682        -1.906668        -0.205410
 H         2.066365        -0.120606         4.018001
