19
Iteration:  1489charge 0 multiplicity 1
 C        -1.177439         0.682929         2.217812
 C         0.333273         0.938760         1.924179
 C         0.898244         2.210282         1.450868
 C         2.168388         1.522459         1.097097
 O         1.842250         0.682462        -0.059234
 C         0.917843        -0.035617         0.781486
 C         0.197113        -1.121515         0.011963
 C         1.615243         0.250346         2.123114
 O         2.112526        -0.504306         3.196924
 H        -1.918702         1.253562         1.654074
 H        -1.267921        -0.313661         1.759012
 H        -1.472625         0.477670         3.306908
 H         0.550640         2.869524         0.698972
 H         0.952121         2.958757         2.347801
 H         3.127466         1.963388         1.182457
 H        -0.621980        -1.536443         0.527089
 H        -0.407293        -0.798409        -0.808413
 H         1.003653        -1.851377        -0.489724
 H         1.914654        -0.007465         4.058556
