19
Iteration:  4967charge 0 multiplicity 1
 C        -1.016567         0.717128         2.390825
 C         0.231943         1.000424         1.743332
 C         0.893450         2.382599         1.492558
 C         2.182451         1.470618         1.243597
 O         1.757702         0.832861        -0.066202
 C         0.910548        -0.048324         0.731428
 C         0.433683        -1.347356         0.190627
 C         1.543895         0.256664         1.941125
 O         1.915272        -0.485306         3.080766
 H        -1.081032         0.597301         3.539255
 H        -1.900815         1.344690         1.955871
 H        -1.307942        -0.329686         2.201158
 H         0.484345         2.771010         0.506017
 H         0.869568         2.829807         2.469893
 H         3.369978         1.634398         1.139276
 H        -0.014739        -1.087535        -0.804732
 H         1.209288        -1.989489         0.131730
 H        -0.284873        -1.916735         0.762772
 H         2.287549        -1.337790         2.776881
