19
Iteration:  2820
 C        -1.171248         0.753044         2.282281
 C         0.235661         0.899723         1.761161
 C         0.911983         2.232480         1.444373
 C         2.202320         1.492335         1.128231
 O         1.796663         0.729960        -0.053890
 C         1.048551        -0.106093         0.733565
 C         0.162240        -1.171259         0.087648
 C         1.683931         0.269326         2.126801
 O         2.016131        -0.457694         3.239032
 H        -1.399444         1.467837         3.117064
 H        -1.832796         0.986680         1.443073
 H        -1.425565        -0.239294         2.592271
 H         0.511877         2.874784         0.692180
 H         0.898257         2.764645         2.408375
 H         3.318583         1.873817         0.978463
 H        -0.515004        -1.700051         0.735909
 H        -0.344735        -0.571703        -0.613908
 H         0.687928        -1.945358        -0.423527
 H         2.775485        -1.059158         3.059554
