19
Iteration:  3181
 C        -1.155712         0.790383         2.346232
 C         0.269792         0.952902         1.790247
 C         0.931310         2.315330         1.433014
 C         2.173641         1.491450         1.168864
 O         1.862007         0.748403        -0.119844
 C         0.866367        -0.004141         0.664403
 C         0.290083        -1.297627         0.167173
 C         1.624910         0.248950         2.055435
 O         1.956366        -0.566584         3.196550
 H        -1.280134         1.265302         3.412246
 H        -1.803129         1.238225         1.499482
 H        -1.431253        -0.200281         2.704556
 H         0.523225         2.896773         0.594726
 H         1.144381         2.870016         2.364058
 H         3.129313         2.054796         1.192591
 H        -0.619546        -1.658980         0.719400
 H        -0.067158        -0.996282        -0.902482
 H         0.977505        -2.206837         0.080567
 H         2.883285        -0.896398         3.315009
