19
Iteration:   473charge 0 multiplicity 1
 C        -1.178289         0.830716         2.442986
 C         0.156599         1.013086         1.748226
 C         0.872546         2.253528         1.420167
 C         2.278083         1.473830         1.279083
 O         1.935938         0.784431        -0.111605
 C         0.924782        -0.071677         0.704997
 C         0.385828        -1.368862         0.289917
 C         1.520423         0.278684         1.993152
 O         1.990624        -0.535347         2.899696
 H        -1.421045         1.494934         3.205486
 H        -1.944488         0.850783         1.677790
 H        -1.264016        -0.152302         2.981246
 H         0.568901         2.959699         0.630494
 H         0.728765         2.779652         2.433020
 H         3.327932         1.941337         1.265605
 H         0.006191        -1.948845         1.203201
 H        -0.427032        -1.243192        -0.354107
 H         1.126947        -1.876349        -0.283973
 H         1.518624        -0.459179         3.785978
