19
Iteration:  3905charge 0 multiplicity 1
 C        -1.055765         0.725918         2.386817
 C         0.300796         0.916003         1.781604
 C         0.872174         2.304197         1.521694
 C         2.205416         1.478688         1.183980
 O         1.779815         0.794773        -0.125865
 C         0.930095        -0.061887         0.652798
 C         0.312743        -1.298614         0.063361
 C         1.647293         0.230582         2.021228
 O         1.965121        -0.486899         3.155177
 H        -1.126106         0.718962         3.503332
 H        -1.851406         1.409565         2.181292
 H        -1.520907        -0.188005         2.237932
 H         0.553048         2.901473         0.584505
 H         1.004898         2.905613         2.479132
 H         3.201944         1.943904         1.223397
 H        -0.463719        -1.667596         0.786039
 H        -0.214688        -1.072851        -0.815655
 H         0.983712        -2.168194        -0.140671
 H         1.524860        -0.006142         3.858590
