19
Iteration:  3309
 C        -1.108175         0.743902         2.392133
 C         0.224152         1.003693         1.778300
 C         0.945727         2.251829         1.469647
 C         2.269539         1.442988         1.118912
 O         1.794797         0.731941        -0.064001
 C         0.943065        -0.013085         0.784117
 C         0.391605        -1.279343         0.078699
 C         1.567404         0.260070         2.014072
 O         1.871016        -0.529284         3.084593
 H        -1.081039         1.076994         3.513376
 H        -1.870571         1.101736         1.773141
 H        -1.381907        -0.389145         2.458624
 H         0.649226         3.043496         0.641123
 H         0.813902         2.988722         2.431940
 H         3.300849         1.744010         1.116555
 H         0.227677        -2.005393         0.900653
 H        -0.600061        -0.968538        -0.287440
 H         1.121356        -1.611909        -0.640563
 H         1.923103         0.094600         3.838179
