19
Iteration:  3000charge 0 multiplicity 1
 C        -1.077761         0.726651         2.236642
 C         0.255149         0.951371         1.768521
 C         0.876540         2.288787         1.493203
 C         2.205213         1.486757         1.169575
 O         1.790920         0.671055        -0.053270
 C         0.966773        -0.078741         0.744241
 C         0.191942        -1.149664         0.091276
 C         1.648932         0.200235         2.064407
 O         2.020928        -0.413476         3.227490
 H        -1.460925         1.550408         2.830849
 H        -1.803806         0.476132         1.496247
 H        -0.913375        -0.067659         3.000125
 H         0.612214         2.817561         0.666506
 H         0.967724         2.827944         2.374456
 H         3.173668         2.005037         0.969653
 H        -0.566050        -1.517337         0.698839
 H        -0.269802        -0.775997        -0.776824
 H         0.840705        -1.957619        -0.219303
 H         2.188471        -1.338521         3.076926
