19
Iteration:  2777charge 0 multiplicity 1
 C        -1.065450         0.735614         2.492590
 C         0.233877         1.015588         1.700991
 C         0.970986         2.319622         1.450365
 C         2.235256         1.413800         1.267757
 O         1.869070         0.737171        -0.043802
 C         0.833427        -0.064051         0.692735
 C         0.294832        -1.293423         0.005633
 C         1.553421         0.267693         1.984286
 O         1.859549        -0.434232         3.125047
 H        -1.659155         1.583041         2.873894
 H        -1.669165        -0.048443         1.990166
 H        -0.796468         0.170720         3.383693
 H         0.746651         2.975890         0.653336
 H         1.042849         2.906883         2.370493
 H         3.373848         1.922830         1.258147
 H        -0.121908        -1.855885         0.861069
 H        -0.457276        -1.133602        -0.716095
 H         1.095410        -1.946126        -0.267244
 H         2.659575        -0.911309         2.870159
