19
Iteration:   949charge 0 multiplicity 1
 C        -1.214368         0.748557         2.258623
 C         0.208155         0.926765         1.745663
 C         0.958795         2.260439         1.654173
 C         2.173901         1.388891         1.231336
 O         1.854161         0.791828        -0.014540
 C         0.837152         0.056486         0.677959
 C         0.243338        -1.209461         0.109820
 C         1.551790         0.183176         2.032257
 O         2.235573        -0.523850         2.973309
 H        -1.493174        -0.268427         2.606213
 H        -1.427603         1.508732         3.041791
 H        -1.927308         0.995285         1.489428
 H         0.592540         2.982110         0.980551
 H         1.051344         2.783146         2.644756
 H         3.286328         1.690194         1.199887
 H        -0.387215        -1.647214         0.962848
 H        -0.390142        -0.941471        -0.734074
 H         0.904320        -1.946141        -0.166371
 H         1.819236        -0.460724         3.820675
