19
Iteration:  3502
 C        -1.073213         0.667992         2.367534
 C         0.298717         1.012794         1.882705
 C         0.877658         2.327411         1.458810
 C         2.127340         1.431895         1.150407
 O         1.860300         0.736316        -0.065099
 C         0.972423        -0.094821         0.723869
 C         0.281003        -1.228938        -0.015955
 C         1.591970         0.272974         2.055313
 O         1.974950        -0.480806         3.136020
 H        -1.440710         1.382643         3.069058
 H        -1.871279         0.582572         1.466048
 H        -0.944113        -0.309184         2.859493
 H         0.388157         2.920177         0.607461
 H         1.120403         3.031367         2.322295
 H         3.195024         1.641279         1.263004
 H        -0.227548        -1.758265         0.867797
 H        -0.374043        -0.828858        -0.757045
 H         1.045995        -1.859318        -0.531093
 H         1.396944        -0.319570         3.936938
