19
Iteration:   551charge 0 multiplicity 1
 C        -1.229223         0.779146         2.140709
 C         0.184158         0.983740         1.725543
 C         0.918119         2.240215         1.535813
 C         2.165840         1.471787         1.164473
 O         1.849299         0.701258        -0.055064
 C         0.910558        -0.058524         0.781222
 C         0.163052        -1.241607         0.226717
 C         1.576230         0.256299         2.087311
 O         2.272399        -0.492107         3.089273
 H        -1.270579         0.465149         3.172510
 H        -1.959380         1.533046         1.979373
 H        -1.601713        -0.072876         1.562712
 H         0.486197         2.855503         0.698500
 H         1.074582         2.887230         2.400634
 H         3.130288         1.889062         1.203904
 H        -0.534049        -1.742088         0.891566
 H        -0.312742        -1.032640        -0.684987
 H         1.044947        -1.947285        -0.015351
 H         2.297860        -0.113886         4.011845
