19
Iteration:  1967
 C        -1.028288         0.815546         2.496724
 C         0.204281         0.974610         1.697855
 C         0.898388         2.315417         1.472076
 C         2.184327         1.417274         1.104011
 O         1.747883         0.792202        -0.060865
 C         0.866598         0.038676         0.676032
 C         0.559497        -1.260587         0.089642
 C         1.558867         0.278811         2.081480
 O         1.860030        -0.695054         3.082181
 H        -1.630716         1.652222         2.338806
 H        -1.416337        -0.124282         2.323925
 H        -0.803089         0.766319         3.567012
 H         0.519323         3.212730         0.865747
 H         1.004303         2.761339         2.463551
 H         3.212411         1.786241         0.908311
 H         0.089635        -1.889534         0.795032
 H        -0.103007        -1.289731        -0.833095
 H         1.532838        -1.727021        -0.399349
 H         1.492869        -0.421012         3.919366
