19
Iteration:  1682
 C        -1.325803         0.691997         2.241315
 C         0.248099         0.935034         1.863891
 C         0.876265         2.221900         1.408550
 C         2.168410         1.496746         1.109876
 O         1.814535         0.674516        -0.073364
 C         0.955396        -0.094866         0.843528
 C         0.271660        -1.112652         0.040179
 C         1.677221         0.181633         2.123416
 O         2.186368        -0.419022         3.199892
 H        -1.468777         0.349919         3.257210
 H        -1.912066         1.547293         1.847367
 H        -1.547432        -0.096949         1.486471
 H         0.775989         2.913278         0.540719
 H         0.859923         2.882182         2.241919
 H         3.207718         1.960712         1.174141
 H        -0.426143        -1.751293         0.680048
 H        -0.398069        -0.673271        -0.730710
 H         1.035596        -1.778182        -0.419403
 H         1.971240        -0.042281         4.047361
