19
Iteration:  2090
 C        -1.236070         0.680374         2.231014
 C         0.242586         0.888944         1.724810
 C         0.983515         2.242421         1.610863
 C         2.217589         1.466322         1.228563
 O         1.797863         0.721326        -0.041464
 C         0.912708        -0.059547         0.720531
 C         0.189240        -1.100474         0.078126
 C         1.568779         0.270230         2.094692
 O         2.155576        -0.515188         3.039708
 H        -2.022463         0.731448         1.474120
 H        -1.390805        -0.137886         2.997242
 H        -1.395616         1.624615         2.788049
 H         0.620881         2.959124         0.833981
 H         1.106724         2.739432         2.637727
 H         3.328640         1.886354         1.026099
 H        -0.286581        -1.772908         0.919401
 H        -0.469192        -0.721196        -0.657418
 H         0.967118        -1.830427        -0.488693
 H         2.308086        -0.199685         3.941623
