19
Iteration:  1746
 C        -1.085906         0.708516         2.405414
 C         0.203904         0.920457         1.716652
 C         0.894836         2.329565         1.497915
 C         2.229678         1.497332         1.135941
 O         1.923478         0.757003        -0.097776
 C         0.904532         0.010335         0.681345
 C         0.410535        -1.342746         0.192002
 C         1.574900         0.304079         2.007544
 O         1.857970        -0.546223         3.073527
 H        -1.017832         0.361943         3.529457
 H        -1.601722         1.638400         2.661352
 H        -1.709220        -0.093059         2.069816
 H         0.558967         2.970468         0.600744
 H         0.802745         2.919195         2.385227
 H         3.199572         2.074813         1.095969
 H        -0.274284        -1.841016         0.969969
 H        -0.270301        -1.438000        -0.743262
 H         1.278189        -1.855572         0.068060
 H         1.502499         0.000118         3.808896
