19
Iteration:  2042
 C        -1.185276         0.675563         2.238894
 C         0.220114         0.935981         1.801852
 C         0.901418         2.254364         1.489390
 C         2.230493         1.421803         1.195388
 O         1.839697         0.818082        -0.037604
 C         0.945122        -0.049217         0.839835
 C         0.172816        -1.112696         0.157658
 C         1.610576         0.349149         2.104433
 O         2.154449        -0.649543         2.959601
 H        -1.817866         0.383729         1.258128
 H        -1.212022        -0.123643         2.960711
 H        -1.720926         1.549369         2.657089
 H         0.540352         2.819327         0.574091
 H         0.984121         2.874886         2.378744
 H         3.175848         1.837825         1.438784
 H        -0.585553        -1.450978         0.811324
 H        -0.249503        -0.630294        -0.826090
 H         0.686936        -2.030227        -0.144315
 H         2.117684        -0.387158         3.919389
