19
Iteration:  1517charge 0 multiplicity 1
 C        -1.222731         0.715576         2.279483
 C         0.226736         0.913497         1.706063
 C         0.895746         2.273456         1.460109
 C         2.191198         1.433900         1.246599
 O         1.800934         0.687123        -0.000195
 C         0.960156        -0.057986         0.753554
 C         0.291980        -1.178941         0.034059
 C         1.571115         0.274888         2.079176
 O         2.165374        -0.453665         3.091047
 H        -1.898190         1.573891         2.311622
 H        -1.766997        -0.139474         1.838135
 H        -1.110645         0.335152         3.289319
 H         0.631742         3.099221         0.736348
 H         0.917957         2.742713         2.421506
 H         3.288754         1.567386         1.539093
 H        -0.663852        -1.474433         0.610371
 H        -0.192031        -0.780927        -0.914557
 H         0.891899        -1.973851        -0.226240
 H         2.036653         0.060946         3.940319
