19
Iteration:  1175charge 0 multiplicity 1
 C        -1.137897         0.780017         2.385876
 C         0.165482         1.025154         1.786592
 C         0.938148         2.347058         1.587850
 C         2.209938         1.470375         1.232672
 O         1.881098         0.792405        -0.091038
 C         0.943631         0.045507         0.721224
 C         0.358637        -1.168123         0.142353
 C         1.522558         0.212032         2.040398
 O         1.972846        -0.795475         2.925291
 H        -1.579477         1.505527         3.100792
 H        -1.844482         0.691571         1.550206
 H        -1.081110        -0.205661         2.859285
 H         0.702129         2.891764         0.633396
 H         0.879799         2.854851         2.529995
 H         3.242314         1.817291         1.143801
 H        -0.092007        -1.637672         0.979473
 H        -0.499288        -0.983557        -0.602578
 H         1.085139        -1.862520        -0.392220
 H         2.077552        -0.329727         3.790157
