19
Iteration:  4634
 C        -1.159848         0.636064         2.299410
 C         0.272445         0.862453         1.807793
 C         0.861810         2.219627         1.534177
 C         2.141625         1.424538         1.051748
 O         1.815517         0.671661        -0.015548
 C         0.968605        -0.019766         0.750658
 C         0.203156        -1.100903         0.053267
 C         1.601716         0.273150         2.057152
 O         2.151692        -0.296818         3.179450
 H        -1.513935         1.316886         3.140170
 H        -1.923238         0.697386         1.483004
 H        -1.187527        -0.520893         2.640096
 H         0.396043         2.903008         0.789459
 H         1.033915         2.804672         2.571890
 H         3.189788         1.772653         1.158015
 H         0.486913        -0.992657        -1.011836
 H         0.402910        -2.179458         0.347437
 H        -0.886283        -0.874867         0.370759
 H         2.416631        -1.216300         2.955028
