19
Iteration:   396charge 0 multiplicity 1
 C        -1.098445         0.656981         2.399292
 C         0.250384         0.980029         1.720637
 C         0.930398         2.302247         1.516907
 C         2.148782         1.466943         1.195647
 O         1.862076         0.704750        -0.092816
 C         0.937703        -0.069841         0.691286
 C         0.299398        -1.266041         0.016928
 C         1.528454         0.260473         2.045135
 O         1.990820        -0.416885         3.179362
 H        -1.708369         1.436536         2.725295
 H        -1.767999         0.193295         1.686490
 H        -0.994498        -0.073758         3.240807
 H         0.609237         2.932003         0.702913
 H         1.092971         2.943450         2.421916
 H         3.312903         1.571028         1.105986
 H        -0.514750        -1.640741         0.732667
 H        -0.172525        -0.971641        -0.828466
 H         0.948706        -2.050619        -0.247640
 H         2.147078         0.326969         3.755081
