19
Iteration:  2971
 C        -1.129755         0.707769         2.469822
 C         0.153146         0.961177         1.726343
 C         0.971305         2.302873         1.470258
 C         2.266898         1.400226         1.186406
 O         1.904574         0.774031        -0.086157
 C         0.901597         0.003018         0.683371
 C         0.293789        -1.319536         0.108031
 C         1.551383         0.294951         1.991689
 O         1.916817        -0.398558         3.150986
 H        -1.228920         1.380525         3.412413
 H        -2.035611         0.684061         1.833242
 H        -0.936820        -0.275821         2.968118
 H         0.871759         2.849592         0.407036
 H         1.063519         2.954590         2.411362
 H         3.223775         1.771012         1.134670
 H        -0.338201        -1.799018         0.932992
 H        -0.357710        -1.157756        -0.884578
 H         1.159004        -2.004756        -0.130186
 H         1.892795        -1.361132         2.957839
