19
Iteration:  4666
 C        -1.094884         0.658516         2.281409
 C         0.269662         0.987573         1.788725
 C         0.939899         2.321164         1.479238
 C         2.168290         1.487259         1.120367
 O         1.754639         0.806727        -0.024799
 C         0.937825        -0.023771         0.738629
 C         0.183787        -1.320243         0.068377
 C         1.578418         0.249255         2.078433
 O         2.087562        -0.481080         3.190390
 H        -1.497656         1.155813         3.238099
 H        -1.795810         0.747280         1.410358
 H        -0.964326        -0.513458         2.608811
 H         0.454808         2.771558         0.568292
 H         0.978980         3.040957         2.455101
 H         3.217954         1.837776         1.194749
 H         0.210473        -1.284013        -1.042787
 H         0.535483        -2.304295         0.517567
 H        -0.919932        -1.219241         0.276483
 H         3.065537        -0.510670         3.178955
