19
Iteration:  3441
 C        -1.214629         0.695924         2.304726
 C         0.187416         0.893842         1.750582
 C         1.007793         2.393194         1.555951
 C         2.103206         1.444393         1.247995
 O         1.920248         0.700772        -0.038052
 C         0.952060        -0.068924         0.693522
 C         0.213691        -1.222670         0.058331
 C         1.491127         0.163796         2.044267
 O         2.203377        -0.336480         3.090512
 H        -1.629698         1.591416         2.907482
 H        -1.971946         0.610867         1.539417
 H        -1.244484        -0.268093         2.904577
 H         0.587952         3.128931         0.766441
 H         1.009566         2.877882         2.628624
 H         3.133054         1.809391         1.294044
 H        -0.768846        -1.378316         0.525424
 H         0.070762        -1.119706        -1.093315
 H         0.646376        -2.232349         0.083330
 H         1.873286        -1.194440         3.451407
