19
Iteration:  1023
 C        -1.057120         0.701536         2.550250
 C         0.224345         0.984924         1.794211
 C         0.944816         2.310261         1.480025
 C         2.205404         1.546612         1.129756
 O         1.838461         0.850097        -0.067394
 C         1.068096        -0.026815         0.687847
 C         0.331246        -1.183819         0.042614
 C         1.585972         0.254743         2.040264
 O         1.769204        -0.749868         2.993989
 H        -0.906018         0.506397         3.645990
 H        -1.904885         1.335072         2.343177
 H        -1.414195        -0.246961         2.138126
 H         0.810857         2.958664         0.659223
 H         1.084238         2.999708         2.316260
 H         3.235642         2.013612         1.237565
 H         0.234910        -1.774400         0.865578
 H        -0.648542        -0.945632        -0.435846
 H         0.978956        -1.835228        -0.518593
 H         1.727110        -0.424575         3.924583
