19
Iteration:   475charge 0 multiplicity 1
 C        -1.194850         0.833450         2.416130
 C         0.141874         1.015926         1.746503
 C         0.868750         2.257826         1.436498
 C         2.267724         1.460606         1.278754
 O         1.935981         0.780093        -0.119383
 C         0.937957        -0.051177         0.713364
 C         0.372972        -1.368699         0.304597
 C         1.534834         0.256144         2.005707
 O         2.008322        -0.533886         2.901828
 H        -1.380422         1.521080         3.257347
 H        -1.998359         0.901097         1.732193
 H        -1.265154        -0.127724         2.904427
 H         0.548589         2.963677         0.666530
 H         0.793389         2.748965         2.398552
 H         3.247205         1.921474         1.224037
 H         0.044167        -1.914101         1.099488
 H        -0.406953        -1.289411        -0.357589
 H         1.173603        -1.871862        -0.300884
 H         1.549057        -0.398686         3.735891
