19
Iteration:  4939charge 0 multiplicity 1
 C        -1.158282         0.717828         2.493779
 C         0.206173         0.939818         1.775668
 C         0.937842         2.316961         1.541664
 C         2.192716         1.588374         0.949125
 O         1.838604         0.786771        -0.103513
 C         0.907182        -0.009682         0.711940
 C         0.505626        -1.288165         0.169070
 C         1.568351         0.261031         2.028062
 O         1.810888        -0.572841         3.122451
 H        -1.099497         0.971465         3.512160
 H        -1.889920         1.342583         2.125758
 H        -1.441774        -0.375801         2.494134
 H         0.411738         3.042589         0.831375
 H         1.190474         2.787386         2.511894
 H         3.147321         1.864305         0.827132
 H         0.206003        -1.084671        -0.871255
 H         1.500597        -2.085322         0.317059
 H        -0.319514        -1.785136         0.746508
 H         2.534506        -1.165396         2.878752
