19
Iteration:  3009charge 0 multiplicity 1
 C        -1.137122         0.722892         2.239336
 C         0.318458         0.933995         1.744823
 C         0.911444         2.286802         1.558358
 C         2.168100         1.483785         1.078008
 O         1.871233         0.649585        -0.015940
 C         0.876425        -0.070926         0.754939
 C         0.131496        -1.142715         0.078265
 C         1.660403         0.250147         2.076158
 O         2.064170        -0.430623         3.258452
 H        -1.643100         1.504803         2.649651
 H        -1.781367         0.361401         1.398965
 H        -1.210942        -0.168209         2.841332
 H         0.487650         2.808373         0.706297
 H         0.941122         3.077513         2.301476
 H         3.227578         2.076169         1.058408
 H        -0.647118        -1.609803         0.625691
 H        -0.278219        -0.778448        -0.782769
 H         0.821521        -1.917434        -0.213889
 H         2.529954        -1.181193         2.900844
