19
Iteration:  3736charge 0 multiplicity 1
 C        -0.967352         0.668071         2.437072
 C         0.167465         0.993353         1.648772
 C         0.813907         2.355838         1.511602
 C         2.168471         1.458632         1.221332
 O         1.903762         0.699381        -0.032232
 C         0.954502        -0.041277         0.756443
 C         0.292625        -1.233479         0.081854
 C         1.575285         0.261067         1.979116
 O         1.932338        -0.546637         3.054648
 H        -1.234193         1.605736         2.957032
 H        -1.975358         0.518942         2.049998
 H        -0.758757        -0.060979         3.301431
 H         0.507291         3.081445         0.557990
 H         0.904075         2.923901         2.457496
 H         3.190821         1.811886         1.312576
 H        -0.480695        -1.750963         0.572049
 H        -0.061082        -0.932687        -0.963125
 H         0.959784        -1.987904        -0.337943
 H         2.069440         0.036026         3.805413
