19
Iteration:  4702charge 0 multiplicity 1
 C        -1.144610         0.729801         2.490157
 C         0.135279         0.993462         1.736021
 C         0.906497         2.231796         1.575056
 C         2.200803         1.527002         1.114645
 O         1.935442         0.749745        -0.116274
 C         0.901720        -0.031101         0.708110
 C         0.417193        -1.333367         0.214071
 C         1.523272         0.344179         1.981608
 O         1.929167        -0.501320         3.021109
 H        -1.243568         1.215901         3.449152
 H        -2.031931         1.081067         1.924675
 H        -1.321497        -0.367855         2.518832
 H         0.366508         2.868355         0.835689
 H         1.081712         2.862865         2.449742
 H         3.215161         1.920929         1.174635
 H         0.305468        -1.366712        -0.892206
 H         0.946623        -2.179624         0.461714
 H        -0.717395        -1.459454         0.636423
 H         2.839258        -0.843698         2.834348
