19
Iteration:  3487charge 0 multiplicity 1
 C        -1.160431         0.656446         2.375474
 C         0.232977         0.974777         1.867959
 C         0.947340         2.234886         1.503932
 C         2.238019         1.459234         1.180355
 O         1.799208         0.734837        -0.157342
 C         1.000137        -0.084622         0.676542
 C         0.268962        -1.186395         0.013320
 C         1.529655         0.242928         2.063552
 O         2.073854        -0.429032         3.223136
 H        -1.694655         1.557143         2.882588
 H        -1.892627         0.535032         1.567705
 H        -1.176841        -0.196294         2.997378
 H         0.616155         2.833909         0.531793
 H         1.071019         3.043201         2.424306
 H         3.243594         1.965204         1.094437
 H        -0.458566        -1.666228         0.578238
 H        -0.054297        -0.737321        -0.983760
 H         0.966512        -1.923119        -0.364120
 H         1.297591        -0.630148         3.760271
