19
Iteration:  2539charge 0 multiplicity 1
 C        -1.048410         0.839810         2.532840
 C         0.274170         0.881253         1.767992
 C         0.961055         2.319378         1.402867
 C         2.218045         1.499318         1.183767
 O         1.760771         0.876576        -0.067605
 C         0.975765        -0.056902         0.709897
 C         0.417316        -1.300843         0.100297
 C         1.622339         0.221798         1.996032
 O         1.760913        -0.642843         3.038769
 H        -1.777836         1.552671         2.182527
 H        -1.614211        -0.156251         2.416974
 H        -0.808005         1.010896         3.616201
 H         0.692686         2.920502         0.492147
 H         0.857030         2.875312         2.394644
 H         3.169480         1.857672         1.162952
 H         0.010973        -2.084528         0.892199
 H        -0.266375        -1.063397        -0.777510
 H         1.124532        -1.999493        -0.456702
 H         1.774226        -0.257723         3.917877
