19
Iteration:  2782
 C        -1.081539         0.753994         2.482713
 C         0.297368         0.978546         1.735934
 C         0.933478         2.298733         1.467324
 C         2.264079         1.429083         1.228841
 O         1.873166         0.705249        -0.018706
 C         0.864540        -0.029697         0.652174
 C         0.278211        -1.275818         0.013864
 C         1.530485         0.294770         1.969336
 O         1.871092        -0.447600         3.138614
 H        -1.621001         1.618938         2.875685
 H        -1.709082         0.044556         1.886170
 H        -0.913130         0.092114         3.394861
 H         0.595662         3.017015         0.631853
 H         0.948465         2.902892         2.412012
 H         3.160169         1.852814         1.179290
 H        -0.223211        -1.805937         0.890137
 H        -0.550168        -1.199570        -0.787312
 H         1.142065        -1.932834        -0.341386
 H         2.775607        -0.859707         3.048938
