19
Iteration:  1319charge 0 multiplicity 1
 C        -1.150689         0.643761         2.230961
 C         0.246943         0.993709         1.800653
 C         0.885604         2.345271         1.562081
 C         2.203911         1.452130         1.226178
 O         1.846726         0.745368        -0.016153
 C         0.914846        -0.052930         0.703577
 C         0.195385        -1.092182         0.062501
 C         1.530313         0.201475         2.065608
 O         2.137505        -0.616455         3.063587
 H        -1.104805        -0.084439         3.105230
 H        -1.636002         1.577826         2.478393
 H        -1.797434         0.302567         1.441083
 H         0.438940         2.925735         0.710423
 H         1.338163         2.756550         2.439235
 H         3.318054         1.752038         1.447239
 H        -0.693774        -1.335841         0.631985
 H        -0.174299        -0.745494        -0.970880
 H         0.879438        -1.846121        -0.015290
 H         2.329805        -0.025060         3.865268
