19
Iteration:  4294
 C        -1.232922         0.776307         2.247922
 C         0.228668         1.018221         1.720966
 C         0.985040         2.294531         1.550882
 C         2.227598         1.447055         1.149986
 O         1.754620         0.788253        -0.033426
 C         0.885728        -0.021000         0.680084
 C         0.429579        -1.313350         0.260648
 C         1.470284         0.271067         2.009766
 O         2.062718        -0.579433         3.017548
 H        -1.339807         1.149436         3.296506
 H        -2.035682         1.303315         1.648748
 H        -1.394259        -0.377694         2.246786
 H         0.800580         3.223343         0.981094
 H         1.139375         2.702198         2.621677
 H         3.297689         1.539709         1.080514
 H         0.609051        -1.872780         1.188673
 H        -0.672372        -1.385647        -0.099251
 H         1.074772        -1.775623        -0.413860
 H         2.070007        -0.277600         3.959821
