19
Iteration:  4448
 C        -1.214387         0.697504         2.156519
 C         0.281341         0.858641         1.794441
 C         0.936858         2.298352         1.509169
 C         2.146801         1.491149         1.099179
 O         1.736587         0.828722        -0.077781
 C         0.967614        -0.080552         0.751166
 C         0.248849        -1.210600         0.177584
 C         1.635626         0.340907         2.119468
 O         2.227649        -0.579786         3.166732
 H        -1.395073         1.468928         2.939493
 H        -1.874694         0.876586         1.251694
 H        -1.576448        -0.249976         2.697815
 H         0.388317         2.773076         0.724215
 H         0.882222         2.755803         2.519684
 H         3.177328         1.824429         1.162396
 H        -0.811882        -0.955074         0.352322
 H         0.337089        -1.316274        -1.024146
 H         0.496544        -2.180955         0.585320
 H         1.490207        -0.481991         3.789569
