19
Iteration:   931charge 0 multiplicity 1
 C        -1.156008         0.767595         2.193584
 C         0.270636         0.933228         1.847428
 C         0.862278         2.284036         1.631001
 C         2.176599         1.488877         1.213074
 O         1.797383         0.746679        -0.094480
 C         0.964954        -0.108319         0.778082
 C         0.159584        -1.141945         0.082912
 C         1.590246         0.268745         2.043201
 O         2.232304        -0.605504         3.019395
 H        -1.473836        -0.270230         2.143128
 H        -1.466581         1.093593         3.195261
 H        -1.681472         1.463967         1.518716
 H         0.354900         2.998103         0.909781
 H         1.091556         2.747242         2.617230
 H         3.106720         1.940717         1.257154
 H        -0.555135        -1.681053         0.790359
 H        -0.331420        -0.761909        -0.818091
 H         0.932839        -1.961513         0.025386
 H         1.698768        -0.497503         3.797434
