19
Iteration:  4235
 C        -1.262591         0.757775         2.241996
 C         0.170793         0.918763         1.805741
 C         0.865887         2.326700         1.411264
 C         2.141580         1.496871         1.215247
 O         1.873958         0.752154        -0.078262
 C         1.009737        -0.090063         0.825776
 C         0.196730        -1.189831         0.212487
 C         1.578491         0.273174         2.106997
 O         2.235899        -0.618816         2.974229
 H        -1.477392         1.449015         3.157837
 H        -2.000586         0.879417         1.429546
 H        -1.441198        -0.253799         2.655492
 H         0.733304         2.913252         0.500974
 H         0.975415         2.923727         2.286536
 H         3.175444         1.840872         1.453718
 H        -0.543834        -1.620728         0.931870
 H        -0.196324        -0.708720        -0.699146
 H         1.084379        -1.895769        -0.070727
 H         2.092449        -0.345421         3.889592
