19
Iteration:   767charge 0 multiplicity 1
 C        -1.200522         0.765750         2.291004
 C         0.136938         0.914504         1.640098
 C         0.896228         2.252511         1.603762
 C         2.249221         1.427509         1.248903
 O         1.934152         0.748721        -0.038192
 C         0.875370        -0.018658         0.707812
 C         0.176810        -1.289479         0.169752
 C         1.553421         0.370297         2.032321
 O         2.175505        -0.535743         3.013132
 H        -1.762767         1.726591         2.466380
 H        -1.936058         0.192455         1.627219
 H        -1.097746         0.162472         3.280171
 H         0.553106         2.972922         0.845101
 H         0.913030         2.761115         2.569457
 H         3.248249         1.710181         1.363578
 H        -0.490292        -1.991442         0.799505
 H        -0.421439        -0.966568        -0.682735
 H         1.008684        -1.864788        -0.227878
 H         2.546868         0.060254         3.741034
