19
Iteration:  2880charge 0 multiplicity 1
 C        -1.211618         0.760965         2.309621
 C         0.214190         0.934821         1.673623
 C         0.980155         2.316399         1.515816
 C         2.160823         1.479291         1.186936
 O         1.857080         0.694678        -0.015407
 C         0.930973        -0.068674         0.787626
 C         0.288718        -1.296760         0.177283
 C         1.586978         0.288137         2.024007
 O         2.023770        -0.421813         3.092308
 H        -1.250552         0.764112         3.409069
 H        -1.773098         1.653669         1.954306
 H        -1.809790        -0.157895         1.990312
 H         0.790312         3.149462         0.769827
 H         1.129372         2.652351         2.544987
 H         3.203270         1.906874         1.030643
 H        -0.333647        -1.866864         0.876117
 H        -0.413787        -0.976881        -0.677738
 H         1.087625        -1.918571        -0.327835
 H         2.432905        -1.295298         2.816978
