19
Iteration:  2144charge 0 multiplicity 1
 C        -1.091549         0.743017         2.529051
 C         0.254736         0.981887         1.739258
 C         0.950936         2.299928         1.442681
 C         2.178158         1.503871         1.154401
 O         1.807884         0.769835        -0.039592
 C         0.909759        -0.009151         0.720916
 C         0.424417        -1.208761         0.140180
 C         1.637417         0.267071         1.964550
 O         1.824511        -0.649515         3.016635
 H        -2.014748         1.325623         2.155383
 H        -1.380211        -0.300184         2.218323
 H        -1.043191         0.832304         3.641965
 H         0.625068         2.915432         0.580053
 H         1.181787         2.800574         2.420166
 H         3.276689         1.866968         0.943372
 H         0.178565        -2.000384         0.912400
 H        -0.352342        -0.972396        -0.515716
 H         1.308001        -1.720722        -0.451718
 H         1.489268        -0.365284         3.875384
