19
Iteration:  2200charge 0 multiplicity 1
 C        -1.123678         0.732102         2.463526
 C         0.138717         0.938268         1.697219
 C         0.961544         2.287159         1.541142
 C         2.234695         1.419100         1.239696
 O         1.906868         0.838781        -0.135355
 C         0.880464        -0.001605         0.669069
 C         0.347199        -1.326028         0.212466
 C         1.536179         0.315797         2.008662
 O         1.965895        -0.576921         2.975026
 H        -1.566508         1.692087         2.437997
 H        -1.897245         0.044993         1.975292
 H        -1.020620         0.361915         3.502539
 H         0.659182         2.951863         0.742443
 H         0.918553         2.937586         2.429439
 H         3.287634         1.661510         1.289035
 H        -0.476990        -1.725751         0.816856
 H        -0.186299        -1.037610        -0.608494
 H         1.153493        -1.953827        -0.179603
 H         2.023056        -0.258627         3.877542
