19
Iteration:   134charge 0 multiplicity 1
 C        -1.206195         0.707060         2.139380
 C         0.268324         0.990399         1.928302
 C         0.896712         2.244354         1.464359
 C         2.171077         1.461936         1.037820
 O         1.784545         0.684147        -0.152549
 C         0.997486        -0.100773         0.828588
 C         0.259591        -1.111258         0.162130
 C         1.538307         0.212016         2.136497
 O         2.186409        -0.496814         3.206676
 H        -1.682541         1.278099         2.871070
 H        -1.599160         0.741639         1.195823
 H        -1.292944        -0.341011         2.531737
 H         0.445132         2.710352         0.611830
 H         0.973093         3.070983         2.192986
 H         3.154308         2.057367         1.037784
 H        -0.707325        -1.459249         0.707888
 H        -0.048523        -0.677518        -0.697779
 H         0.841178        -1.984271         0.026028
 H         1.846028        -0.003293         4.006701
