19
Iteration:  2278charge 0 multiplicity 1
 C        -1.155181         0.719172         2.220582
 C         0.205585         0.924536         1.739363
 C         0.881634         2.332676         1.501358
 C         2.167649         1.482890         1.275670
 O         1.875472         0.729099        -0.098007
 C         0.931330        -0.091957         0.796038
 C         0.105081        -1.191781         0.148093
 C         1.635595         0.245552         2.054670
 O         2.185521        -0.530137         3.064834
 H        -1.394272         1.405225         2.971346
 H        -1.857753         0.897254         1.339054
 H        -1.323044        -0.268092         2.694896
 H         0.573949         2.980882         0.708051
 H         0.887034         2.796499         2.475019
 H         3.214397         1.692911         1.298730
 H        -0.591318        -1.677087         0.858389
 H        -0.290664        -0.800203        -0.665230
 H         0.721415        -1.984591        -0.149722
 H         2.390719        -0.041073         3.878154
