19
Iteration:  3895charge 0 multiplicity 1
 C        -1.084201         0.703635         2.378133
 C         0.256269         0.923511         1.790463
 C         0.929111         2.213801         1.453723
 C         2.130852         1.476782         1.137687
 O         1.827285         0.852957        -0.131392
 C         0.935949        -0.041558         0.736517
 C         0.301271        -1.272347         0.101277
 C         1.555344         0.258423         2.049909
 O         2.018975        -0.515602         3.157211
 H        -0.984435         0.697541         3.493560
 H        -1.535324         1.615004         1.946843
 H        -1.466424        -0.194712         1.930521
 H         0.248956         2.826921         0.739644
 H         1.222894         2.884846         2.349227
 H         3.172448         1.736501         1.243641
 H        -0.479553        -1.676971         0.827518
 H        -0.201932        -0.971898        -0.785629
 H         1.055378        -2.093169        -0.207123
 H         1.693384        -0.126325         3.983485
