19
Iteration:  4987charge 0 multiplicity 1
 C        -1.162668         0.654775         2.380317
 C         0.154033         0.919190         1.701054
 C         0.892805         2.277489         1.457414
 C         2.182124         1.434392         1.224546
 O         1.865375         0.802636        -0.056909
 C         0.912163         0.037120         0.646027
 C         0.327088        -1.268352         0.142548
 C         1.559414         0.317207         2.063962
 O         2.047143        -0.476016         3.135407
 H        -1.044493         0.840721         3.482396
 H        -1.943603         1.372337         1.983649
 H        -1.503858        -0.355167         2.451546
 H         0.835323         2.912340         0.605409
 H         1.099289         2.737080         2.447450
 H         3.129705         2.178014         1.176033
 H        -0.339983        -1.106225        -0.749521
 H         1.168597        -1.984710        -0.028457
 H        -0.279532        -1.764443         0.999830
 H         2.454461        -1.267505         2.696535
