19
Iteration:  3397
 C        -1.114177         0.716633         2.214645
 C         0.256314         1.015053         1.774408
 C         0.839136         2.341742         1.427592
 C         2.125029         1.497221         1.184593
 O         1.786732         0.723053         0.025980
 C         0.915695        -0.024584         0.805614
 C         0.326714        -1.222895         0.162665
 C         1.599739         0.257095         2.029647
 O         2.116756        -0.572833         3.137842
 H        -1.143195         1.304346         3.228392
 H        -1.798153         1.278066         1.588933
 H        -1.503714        -0.359392         2.320507
 H         0.617790         2.988155         0.475971
 H         1.184183         3.045706         2.358025
 H         3.119445         1.907041         1.194358
 H        -0.524919        -1.702820         0.704885
 H        -0.019212        -1.045406        -0.924521
 H         1.033789        -2.077679         0.083337
 H         1.758330        -1.459355         2.879680
