19
Iteration:  3857charge 0 multiplicity 1
 C        -1.211465         0.736597         2.233521
 C         0.135407         1.053943         1.778986
 C         0.896809         2.382681         1.471147
 C         2.157459         1.503367         1.261077
 O         1.915356         0.701227         0.008290
 C         0.924297        -0.130066         0.791390
 C         0.221521        -1.311353         0.200437
 C         1.583094         0.307247         2.056521
 O         2.188723        -0.581265         2.926351
 H        -1.437717         0.514233         3.265408
 H        -1.895808         1.544864         2.122437
 H        -1.754210        -0.114130         1.761521
 H         0.599191         2.993172         0.573499
 H         0.996895         2.934118         2.392742
 H         3.159037         1.943784         1.434315
 H        -0.199844        -2.020241         0.857695
 H        -0.489692        -1.000499        -0.620124
 H         0.974298        -1.854124        -0.317796
 H         2.463825        -0.131204         3.767033
