19
Iteration:  3653charge 0 multiplicity 1
 C        -1.209817         0.680313         2.279883
 C         0.142098         0.951733         1.653800
 C         0.901867         2.320659         1.536302
 C         2.192334         1.441838         1.145564
 O         1.883097         0.709146        -0.071220
 C         0.922603        -0.023560         0.698466
 C         0.240181        -1.190913         0.146617
 C         1.588196         0.236333         2.054632
 O         2.214330        -0.465236         3.165390
 H        -1.280400         1.249070         3.265598
 H        -2.049113         0.949347         1.597820
 H        -1.334774        -0.344275         2.489257
 H         0.571869         3.098216         0.938909
 H         0.953343         2.673942         2.580820
 H         3.306455         1.635061         1.264390
 H        -0.596739        -1.508893         0.827555
 H        -0.256654        -0.831028        -0.748947
 H         0.941005        -2.007861         0.039337
 H         1.428383        -0.569495         3.760187
