19
Iteration:  3266charge 0 multiplicity 1
 C        -1.125677         0.693862         2.308995
 C         0.201190         0.932919         1.685510
 C         0.943592         2.273922         1.485966
 C         2.259310         1.446005         1.248324
 O         1.880135         0.722658        -0.042440
 C         1.006566        -0.123614         0.729462
 C         0.146934        -1.190004         0.112823
 C         1.564878         0.277909         2.047242
 O         2.065869        -0.398228         3.131413
 H        -1.242207         1.306759         3.306192
 H        -1.927498         0.652784         1.613957
 H        -1.229103        -0.335300         2.847570
 H         0.523501         2.953319         0.675174
 H         0.848336         3.143066         2.237388
 H         3.219129         1.911839         1.120162
 H        -0.524756        -1.863482         0.673091
 H        -0.473697        -0.568530        -0.575412
 H         0.769543        -1.792404        -0.510906
 H         1.510173        -1.086092         3.482157
