19
Iteration:   816charge 0 multiplicity 1
 C        -1.021541         0.755914         2.455985
 C         0.305475         0.886978         1.810841
 C         0.971082         2.347668         1.404283
 C         2.224924         1.526767         1.197283
 O         1.737375         0.810536        -0.132565
 C         0.863459        -0.011270         0.769490
 C         0.410786        -1.285507         0.036471
 C         1.623578         0.288882         2.097625
 O         1.856373        -0.663636         3.072417
 H        -1.839218         1.248811         1.909177
 H        -1.353727        -0.272036         2.449538
 H        -0.941426         1.091454         3.486492
 H         0.567331         2.945353         0.560974
 H         0.946455         2.944705         2.342322
 H         3.161642         2.249910         1.047760
 H        -0.031976        -1.885900         0.774090
 H        -0.489688        -1.116125        -0.594693
 H         1.229904        -1.967730        -0.359573
 H         1.275921        -0.463042         3.789376
