19
Iteration:  2878
 C        -1.233745         0.739252         2.312182
 C         0.211618         0.938853         1.669966
 C         1.009303         2.328523         1.514516
 C         2.140436         1.450149         1.182092
 O         1.858186         0.685945        -0.009379
 C         0.947233        -0.053050         0.801867
 C         0.278289        -1.289183         0.157429
 C         1.578797         0.297384         2.024149
 O         2.038267        -0.417546         3.084066
 H        -1.250446         0.765247         3.376891
 H        -1.817695         1.641563         1.935128
 H        -1.851645        -0.151114         2.007006
 H         0.823118         3.127654         0.825702
 H         1.081351         2.704928         2.553387
 H         3.255237         1.973946         1.008830
 H        -0.309287        -1.845327         0.910377
 H        -0.373901        -1.004899        -0.631037
 H         1.045595        -1.913851        -0.294913
 H         2.430531        -1.289469         2.881910
