19
Iteration:  2385
 C        -1.063240         0.797687         2.520894
 C         0.158350         0.985718         1.707086
 C         0.985317         2.321299         1.437606
 C         2.217411         1.469099         1.195392
 O         1.843771         0.793661        -0.051009
 C         0.932716        -0.060304         0.697205
 C         0.430153        -1.391862         0.151560
 C         1.486965         0.253969         1.998456
 O         1.872406        -0.540639         2.985684
 H        -0.768818         0.821775         3.575747
 H        -1.776753         1.658125         2.321508
 H        -1.663654        -0.118141         2.297817
 H         0.546514         3.014715         0.741254
 H         1.234084         2.910829         2.328214
 H         3.182001         1.685520         1.123605
 H         0.119967        -2.170242         0.920666
 H        -0.525102        -1.265457        -0.424537
 H         1.305004        -1.709612        -0.483370
 H         1.670413        -0.141944         3.846726
