19
Iteration:  1729charge 0 multiplicity 1
 C        -1.208087         0.634864         2.436707
 C         0.197509         0.976248         1.667287
 C         0.913157         2.285886         1.457744
 C         2.176933         1.459526         1.226797
 O         1.929380         0.768700        -0.055855
 C         0.969839        -0.080107         0.654818
 C         0.318587        -1.275268         0.186735
 C         1.588861         0.259666         1.946777
 O         1.987697        -0.436377         3.099266
 H        -0.923576         0.301496         3.410067
 H        -1.791175         1.571935         2.391161
 H        -1.841042        -0.070877         1.772542
 H         0.497200         2.986911         0.770298
 H         1.190395         2.892636         2.397384
 H         3.197036         1.762361         1.249183
 H        -0.372482        -1.541413         0.937358
 H        -0.236608        -1.006920        -0.658342
 H         1.075933        -2.197175        -0.039304
 H         1.613466         0.095724         3.856275
