19
Iteration:   721
 C        -1.188870         0.701790         2.145378
 C         0.295743         0.958902         1.944162
 C         0.855757         2.270983         1.494859
 C         2.176237         1.422214         1.051231
 O         1.863908         0.752949        -0.071911
 C         0.855976        -0.007422         0.885935
 C         0.254214        -1.203665         0.186905
 C         1.631245         0.261355         2.135962
 O         2.150106        -0.574333         3.016557
 H        -1.719893         1.312939         2.933641
 H        -1.644434         1.279029         1.270773
 H        -1.575165        -0.361832         2.208789
 H         0.387819         2.772161         0.658943
 H         0.945550         3.025716         2.352588
 H         3.194857         1.975994         0.992751
 H        -0.623972        -1.668209         0.884892
 H        -0.355109        -0.774725        -0.659628
 H         0.913953        -1.941399        -0.067430
 H         2.258403        -0.093234         3.890674
