19
Iteration:  3333charge 0 multiplicity 1
 C        -1.104948         0.753805         2.389812
 C         0.188404         1.010133         1.665430
 C         1.003175         2.352372         1.521436
 C         2.168847         1.483652         1.203223
 O         1.861303         0.787338        -0.103817
 C         0.920940         0.001999         0.686588
 C         0.373757        -1.465314         0.160424
 C         1.467532         0.254408         2.031272
 O         1.880534        -0.558191         3.102193
 H        -0.802484         1.051736         3.466228
 H        -1.853071         1.379115         1.926478
 H        -1.562491        -0.223578         2.433026
 H         0.743842         3.158686         0.797638
 H         1.148513         2.933025         2.514935
 H         3.181600         1.907145         1.185340
 H         0.223289        -2.170921         0.911076
 H        -0.555882        -1.242536        -0.410821
 H         1.185721        -1.687970        -0.456166
 H         2.755962        -0.224256         3.464731
