19
Iteration:  3891
 C        -1.098895         0.691273         2.367036
 C         0.225276         0.915328         1.799597
 C         0.937548         2.205970         1.444898
 C         2.127991         1.440218         1.095137
 O         1.846127         0.852501        -0.103274
 C         0.957863        -0.037631         0.758800
 C         0.290561        -1.244811         0.124835
 C         1.517715         0.277550         2.049190
 O         2.049511        -0.527829         3.142912
 H        -0.976346         0.754226         3.427746
 H        -1.540608         1.556835         1.965216
 H        -1.564884        -0.089334         1.783117
 H         0.331034         2.874100         0.781683
 H         1.082996         2.853674         2.284343
 H         3.177517         1.819325         1.148252
 H        -0.407399        -1.766990         0.760903
 H        -0.243052        -0.850578        -0.754401
 H         1.078631        -1.889317        -0.039494
 H         1.796533        -0.191912         4.042856
