19
Iteration:  3951charge 0 multiplicity 1
 C        -1.002513         0.653752         2.576457
 C         0.204406         1.057408         1.767070
 C         0.930199         2.376437         1.481069
 C         2.187702         1.449157         1.172003
 O         1.880538         0.721636        -0.141801
 C         0.932297        -0.042943         0.627114
 C         0.369448        -1.229154         0.005226
 C         1.468364         0.221305         2.044118
 O         1.896239        -0.515066         3.125339
 H        -1.277332         1.181789         3.522089
 H        -1.955900         0.763586         1.964071
 H        -0.989746        -0.411047         2.931296
 H         0.529686         2.821620         0.524420
 H         0.991391         3.002127         2.448374
 H         3.241744         1.645282         1.073018
 H        -0.280234        -1.767440         0.698033
 H        -0.125418        -1.171402        -0.982192
 H         1.219684        -1.997800        -0.172369
 H         1.696230         0.041193         3.884009
