19
Iteration:  2174
 C        -0.976006         0.757608         2.528251
 C         0.253183         0.966365         1.763443
 C         0.932728         2.316651         1.439725
 C         2.150239         1.545877         1.147498
 O         1.839721         0.768539        -0.045607
 C         0.935099         0.020192         0.620895
 C         0.424650        -1.291205         0.154968
 C         1.548178         0.285609         2.006416
 O         1.792880        -0.699085         3.023975
 H        -1.709767         1.658648         2.342520
 H        -1.503358        -0.036526         2.016788
 H        -0.932841         0.392066         3.552536
 H         0.538273         3.069967         0.722548
 H         0.974012         2.963139         2.322590
 H         3.171856         2.072920         1.066921
 H        -0.080911        -1.656355         0.995344
 H        -0.460941        -1.301510        -0.574440
 H         1.304521        -1.768877        -0.286147
 H         1.914757        -0.481032         3.955479
