19
Iteration:  3950charge 0 multiplicity 1
 C        -1.008619         0.650720         2.570974
 C         0.202946         1.061715         1.769963
 C         0.927669         2.371344         1.485422
 C         2.184642         1.439086         1.173853
 O         1.879966         0.721397        -0.148915
 C         0.935334        -0.042978         0.621507
 C         0.367772        -1.229604         0.004221
 C         1.468811         0.228822         2.050522
 O         1.896985        -0.513015         3.127529
 H        -1.231201         1.187239         3.544764
 H        -1.929554         0.784049         1.974742
 H        -0.935321        -0.375678         2.907966
 H         0.535841         2.846659         0.516530
 H         0.980564         2.959567         2.457583
 H         3.239153         1.653165         1.071414
 H        -0.280885        -1.765106         0.706854
 H        -0.086786        -1.182618        -0.956995
 H         1.207085        -1.977632        -0.180741
 H         1.683653         0.031211         3.886233
