19
Iteration:  4086
 C        -1.155191         0.820904         2.301952
 C         0.192751         0.956861         1.799325
 C         0.897588         2.205409         1.484853
 C         2.153752         1.547781         1.264553
 O         1.766135         0.686639        -0.062570
 C         0.963667        -0.039485         0.739967
 C         0.375025        -1.247581         0.224947
 C         1.603675         0.269660         2.036159
 O         2.080269        -0.607444         2.971143
 H        -1.438684         1.141595         3.250637
 H        -1.538464         1.579451         1.616893
 H        -1.653349        -0.156771         2.029337
 H         0.479376         2.789998         0.662385
 H         0.950534         2.891927         2.374029
 H         3.210606         1.840632         1.151387
 H        -0.039684        -1.845937         1.078366
 H        -0.451724        -0.788518        -0.453504
 H         1.056516        -1.698738        -0.452274
 H         2.068472         0.047419         3.694051
