19
Iteration:  2623charge 0 multiplicity 1
 C        -1.159321         0.748974         2.177887
 C         0.305829         0.940921         1.769245
 C         0.929791         2.198540         1.549982
 C         2.233934         1.462046         1.200123
 O         1.770061         0.806647        -0.050382
 C         0.877698        -0.021366         0.760487
 C         0.151887        -1.141808         0.138246
 C         1.668952         0.209384         2.062321
 O         2.095565        -0.629632         3.107813
 H        -1.852767         0.289032         1.401689
 H        -1.220585         0.138499         3.065764
 H        -1.577764         1.714044         2.427788
 H         0.729078         2.836158         0.701990
 H         0.898358         2.735926         2.467033
 H         3.247513         2.129108         1.098700
 H        -0.429266        -1.654239         0.820008
 H        -0.570538        -0.762548        -0.589867
 H         0.916023        -1.718585        -0.346851
 H         2.466508        -0.066575         3.847530
