19
Iteration:  2557
 C        -0.947906         0.772522         2.515922
 C         0.221561         1.034928         1.743265
 C         0.935353         2.341174         1.489926
 C         2.214031         1.496135         1.161700
 O         1.836137         0.777984        -0.107775
 C         0.939377        -0.004400         0.654716
 C         0.399572        -1.310146         0.111620
 C         1.517057         0.267696         2.056741
 O         1.788149        -0.708058         3.044106
 H        -1.938264         1.125249         2.071833
 H        -1.048476        -0.261213         2.682953
 H        -0.823866         1.297527         3.459027
 H         0.585857         2.854978         0.586134
 H         0.940647         2.984577         2.349721
 H         3.267212         2.100849         1.136850
 H         0.131406        -1.852740         0.921669
 H        -0.405955        -1.270315        -0.606053
 H         1.169376        -1.739610        -0.480099
 H         1.338855        -0.296346         3.793148
