19
Iteration:  1161charge 0 multiplicity 1
 C        -1.172505         0.716108         2.319262
 C         0.260492         0.995355         1.761603
 C         0.912668         2.339663         1.533405
 C         2.183621         1.415575         1.279885
 O         1.964008         0.795591         0.029448
 C         0.842704         0.068640         0.669215
 C         0.211374        -1.179958         0.142169
 C         1.531577         0.262146         2.036445
 O         2.079042        -0.732798         2.872055
 H        -1.347015         1.659199         2.855525
 H        -2.025242         0.502794         1.599393
 H        -1.248054        -0.096748         3.120388
 H         0.399672         3.122737         0.953032
 H         1.301820         2.941691         2.370823
 H         3.139519         1.717355         1.606762
 H        -0.366669        -1.754924         0.855912
 H        -0.437824        -0.956670        -0.665822
 H         1.077650        -1.868559        -0.129766
 H         2.142419        -0.444491         3.805351
