19
Iteration:  3478charge 0 multiplicity 1
 C        -1.213560         0.657082         2.373966
 C         0.233458         0.899500         1.797404
 C         0.958245         2.248562         1.484364
 C         2.191311         1.460370         1.161542
 O         1.812780         0.749011        -0.056540
 C         0.949853        -0.059984         0.695786
 C         0.266507        -1.166206         0.007779
 C         1.599083         0.186415         2.030942
 O         2.095667        -0.374540         3.204471
 H        -1.503078         1.601949         2.870159
 H        -1.952533         0.459178         1.481226
 H        -1.305353        -0.104929         3.081851
 H         0.808429         2.975252         0.622727
 H         1.118764         2.854629         2.483974
 H         3.236491         1.771935         0.986063
 H        -0.592552        -1.495091         0.560034
 H        -0.022547        -0.736864        -0.926056
 H         0.992437        -1.965680        -0.177226
 H         1.431259        -0.816776         3.743636
