19
Iteration:   868charge 0 multiplicity 1
 C        -1.116943         0.645962         2.506780
 C         0.152442         1.051427         1.716829
 C         0.989700         2.366730         1.553519
 C         2.243009         1.462140         1.187386
 O         1.923982         0.765485        -0.000811
 C         0.943174        -0.045439         0.701213
 C         0.254664        -1.277526         0.047311
 C         1.493918         0.233902         1.977109
 O         1.930092        -0.529740         2.949355
 H        -1.925306         0.074069         1.939206
 H        -0.907474        -0.029390         3.412330
 H        -1.549493         1.634168         2.899578
 H         0.556732         3.099276         0.830386
 H         1.078903         2.727977         2.544548
 H         3.276400         1.750480         1.276846
 H        -0.206549        -1.872848         0.789108
 H        -0.438967        -1.251702        -0.790607
 H         1.170851        -1.949200        -0.275460
 H         2.316407         0.043083         3.616644
