19
Iteration:  3562charge 0 multiplicity 1
 C        -1.124687         0.773166         2.284623
 C         0.241098         1.011468         1.812723
 C         0.919636         2.297144         1.511267
 C         2.183640         1.602949         1.249112
 O         1.901746         0.744334        -0.040776
 C         0.874811        -0.013053         0.691743
 C         0.377521        -1.383821         0.226025
 C         1.549325         0.266830         1.983295
 O         1.895937        -0.572614         2.982464
 H        -1.189397         0.769623         3.448404
 H        -1.909266         1.379473         1.923029
 H        -1.511956        -0.252717         2.017499
 H         0.647437         2.744856         0.619062
 H         0.896879         2.933219         2.297339
 H         3.229367         1.894559         1.181949
 H         0.445148        -2.130169         0.998385
 H        -0.743795        -1.513518        -0.056829
 H         1.108626        -1.768787        -0.498086
 H         2.562177        -0.214337         3.602714
