19
Iteration:  1647charge 0 multiplicity 1
 C        -1.165752         0.748187         2.227486
 C         0.253929         0.928160         1.677650
 C         0.877737         2.297054         1.493521
 C         2.123097         1.528542         1.295505
 O         1.912177         0.712321        -0.027551
 C         0.894755        -0.109162         0.768200
 C         0.271713        -1.282581         0.123279
 C         1.556750         0.241041         2.038381
 O         2.133771        -0.450424         3.059387
 H        -1.239395         0.812504         3.381633
 H        -1.960102         1.487854         2.013222
 H        -1.556203        -0.255096         2.088535
 H         0.523271         2.911550         0.568662
 H         0.758032         2.703006         2.443877
 H         3.179206         1.909268         1.254072
 H        -0.018797        -1.963311         1.009638
 H        -0.622309        -0.956078        -0.593901
 H         0.984414        -1.783906        -0.377936
 H         2.038113        -0.030731         3.920596
