19
Iteration:  4597
 C        -1.101296         0.641317         2.418515
 C         0.219986         0.892726         1.779967
 C         0.895577         2.331018         1.415249
 C         2.178433         1.424573         1.269500
 O         1.872981         0.792413         0.032786
 C         0.853857        -0.085616         0.648253
 C         0.213574        -1.269252         0.027465
 C         1.552118         0.295170         2.012266
 O         2.174817        -0.337557         3.097860
 H        -1.157431         1.093875         3.459356
 H        -2.055410         0.939026         1.844300
 H        -1.177613        -0.505005         2.659193
 H         0.705341         2.890945         0.440532
 H         0.824246         3.034666         2.348370
 H         3.246071         1.670575         1.228915
 H         0.302490        -1.272542        -1.060486
 H         0.639103        -2.258681         0.401968
 H        -0.828871        -1.282000         0.154528
 H         1.558709        -1.093233         3.292550
