19
Iteration:  2525charge 0 multiplicity 1
 C        -1.097944         0.812281         2.480585
 C         0.211932         0.943692         1.696232
 C         0.912579         2.272390         1.536112
 C         2.203133         1.444280         1.154847
 O         1.828823         0.767227        -0.073743
 C         0.889845        -0.028532         0.732635
 C         0.428192        -1.268675         0.063709
 C         1.602312         0.273521         1.997216
 O         1.882675        -0.633938         3.052153
 H        -1.542438         1.817143         2.307718
 H        -1.754069        -0.005130         2.332335
 H        -0.935083         0.781504         3.545007
 H         0.512339         2.900344         0.692707
 H         1.083743         2.954446         2.391929
 H         3.198178         1.803404         1.033216
 H        -0.167274        -1.734117         0.795288
 H        -0.324373        -1.014590        -0.667901
 H         1.352371        -1.778827        -0.150034
 H         1.946215        -0.012099         3.831537
