19
Iteration:  1802charge 0 multiplicity 1
 C        -1.152537         0.833703         2.394174
 C         0.198910         0.988716         1.847458
 C         0.892069         2.258162         1.428819
 C         2.146316         1.435374         1.132839
 O         1.912737         0.766670        -0.055071
 C         0.878078        -0.020500         0.689285
 C         0.520229        -1.340972         0.166706
 C         1.496346         0.317839         2.044704
 O         1.932050        -0.605755         2.998897
 H        -0.904885         0.639860         3.479877
 H        -1.809252         1.707580         2.326327
 H        -1.737192         0.006696         2.012280
 H         0.400633         2.925222         0.679341
 H         1.205178         2.865602         2.244002
 H         3.068759         1.945734         1.328213
 H         0.121830        -1.845943         1.067310
 H        -0.275859        -1.378699        -0.613035
 H         1.401391        -1.857277        -0.164838
 H         1.816568        -0.013619         3.793095
