19
Iteration:  1655charge 0 multiplicity 1
 C        -1.167500         0.735228         2.241612
 C         0.212162         0.929298         1.724952
 C         0.799202         2.270911         1.448210
 C         2.151896         1.439664         1.223762
 O         1.874284         0.718296         0.014644
 C         0.936554        -0.092395         0.766072
 C         0.264267        -1.251734         0.093604
 C         1.595541         0.272938         2.079367
 O         2.171359        -0.442137         3.089895
 H        -1.272813         0.728563         3.351860
 H        -1.682502         1.597617         1.804142
 H        -1.534667        -0.169248         1.763250
 H         0.605791         3.009913         0.690633
 H         0.872515         2.855637         2.415169
 H         3.140846         1.814048         1.362454
 H        -0.199958        -1.889364         0.816573
 H        -0.601137        -0.930970        -0.527351
 H         0.979756        -1.813637        -0.507811
 H         2.022855        -0.029900         3.938876
