19
Iteration:   254charge 0 multiplicity 1
 C        -1.095663         0.810252         2.469616
 C         0.162586         1.042864         1.686206
 C         0.927433         2.252643         1.419949
 C         2.152216         1.498231         1.090393
 O         1.932107         0.727422        -0.095675
 C         0.909907        -0.062256         0.782295
 C         0.466448        -1.360529         0.192037
 C         1.569254         0.296438         2.000744
 O         1.808521        -0.553263         3.069558
 H        -0.909661         0.936316         3.533846
 H        -1.907222         1.516323         2.247698
 H        -1.469556        -0.272075         2.372778
 H         0.510731         2.928681         0.740697
 H         1.133105         2.833117         2.331350
 H         3.210136         2.025609         1.010829
 H         0.214748        -2.088622         1.132489
 H        -0.420672        -1.249803        -0.382912
 H         1.230590        -1.860984        -0.414308
 H         2.004553        -0.047037         3.850685
