19
Iteration:  4069charge 0 multiplicity 1
 C        -1.282183         0.812319         2.135456
 C         0.234989         0.930998         1.863896
 C         0.893003         2.317429         1.552136
 C         2.199441         1.426461         1.084662
 O         1.789828         0.802773        -0.060630
 C         0.923668        -0.030094         0.832716
 C         0.283457        -1.312915         0.210708
 C         1.636707         0.282725         2.108358
 O         2.131325        -0.612307         3.000288
 H        -1.264381         1.209573         3.246221
 H        -1.810756         1.534897         1.441161
 H        -1.467839        -0.254871         2.136768
 H         0.438073         2.945287         0.746301
 H         1.052870         2.851636         2.477043
 H         3.162677         1.943021         1.109796
 H        -0.024790        -1.952416         1.046223
 H        -0.481010        -1.020047        -0.474339
 H         1.097883        -1.816304        -0.411088
 H         2.448646        -0.373703         3.900341
