19
Iteration:  2308
 C        -1.152778         0.659938         2.390171
 C         0.180925         0.989899         1.758868
 C         0.994456         2.345520         1.465804
 C         2.204143         1.431639         1.171127
 O         1.919614         0.710971        -0.051563
 C         0.891946        -0.010864         0.782504
 C         0.284020        -1.215068         0.184186
 C         1.482319         0.244786         1.977601
 O         2.009741        -0.512954         3.011170
 H        -1.250175         0.866462         3.439408
 H        -1.958863         1.294967         1.935548
 H        -1.347558        -0.415549         2.231137
 H         0.722390         2.982922         0.633723
 H         1.054387         2.953662         2.367951
 H         3.190512         1.707997         1.076185
 H        -0.017446        -1.901818         0.996945
 H        -0.523401        -0.930260        -0.560717
 H         1.103024        -1.778231        -0.387621
 H         2.096586        -0.058479         3.856407
