19
Iteration:   437
 C        -0.992615         0.706846         2.489813
 C         0.227477         1.009665         1.658100
 C         0.884708         2.329667         1.367280
 C         2.232470         1.548070         1.080654
 O         1.841955         0.724632        -0.101962
 C         0.907447        -0.000058         0.754512
 C         0.422554        -1.230419         0.193893
 C         1.550821         0.282854         2.030613
 O         1.815515        -0.671301         3.145541
 H        -1.509461         1.565869         2.938335
 H        -1.750452         0.144188         1.827601
 H        -0.676447        -0.115022         3.191498
 H         0.520406         2.962892         0.517311
 H         0.826164         2.870585         2.387497
 H         3.255885         2.050226         1.102530
 H        -0.016846        -2.010075         0.975500
 H        -0.359912        -0.906959        -0.612435
 H         1.266219        -1.752488        -0.247430
 H         1.684835        -0.183360         4.027376
