19
Iteration:   661
 C        -1.083384         0.791456         2.533026
 C         0.216286         0.951225         1.745460
 C         0.927340         2.279881         1.531131
 C         2.255316         1.473016         1.212615
 O         1.901139         0.722641        -0.085205
 C         0.834484        -0.014130         0.597448
 C         0.435322        -1.387940         0.174214
 C         1.515589         0.247007         1.906514
 O         1.854664        -0.460569         3.022593
 H        -0.910720         0.510163         3.563811
 H        -1.522762         1.760490         2.435819
 H        -1.738284         0.019224         2.152962
 H         0.670558         2.817368         0.566630
 H         0.883187         2.886028         2.428194
 H         3.092980         2.144513         1.085388
 H         0.108576        -1.777806         1.069804
 H        -0.344577        -1.474040        -0.563703
 H         1.328058        -2.097249        -0.227949
 H         1.684348         0.171378         3.786436
