19
Iteration:  2520charge 0 multiplicity 1
 C        -1.085484         0.820924         2.475312
 C         0.192186         0.978113         1.693890
 C         0.904150         2.255931         1.545959
 C         2.205437         1.461337         1.166480
 O         1.845195         0.726619        -0.091598
 C         0.874332        -0.001002         0.728837
 C         0.417291        -1.242442         0.074350
 C         1.543288         0.251616         2.002076
 O         1.933691        -0.613202         3.058022
 H        -1.611737         1.766033         2.288446
 H        -1.802786         0.010986         2.121018
 H        -0.947334         0.695917         3.581972
 H         0.457836         2.890702         0.788049
 H         1.168712         2.818354         2.447687
 H         3.301258         1.855033         1.024011
 H        -0.145893        -1.887825         0.840128
 H        -0.212926        -1.002921        -0.812583
 H         1.286850        -1.893169        -0.164792
 H         1.983828        -0.125477         3.883473
