19
Iteration:  3981
 C        -1.033921         0.723388         2.434977
 C         0.240867         0.949266         1.714323
 C         0.874345         2.226049         1.419310
 C         2.202487         1.481643         1.185869
 O         1.829277         0.766962        -0.096997
 C         0.960564        -0.026978         0.822967
 C         0.305199        -1.187328         0.063334
 C         1.578267         0.355969         2.109469
 O         1.948206        -0.616511         3.038643
 H        -1.417927         1.533773         3.103429
 H        -1.907978         0.491531         1.891347
 H        -1.073034        -0.142151         3.009289
 H         0.532345         2.867666         0.549749
 H         0.731665         2.851040         2.302625
 H         3.226284         1.831607         1.016337
 H        -0.370010        -1.812801         0.675354
 H        -0.271325        -0.857609        -0.738301
 H         1.124561        -1.841737        -0.167574
 H         2.012648        -0.352136         3.993636
