19
Iteration:  4915charge 0 multiplicity 1
 C        -1.029336         0.758929         2.463099
 C         0.222016         0.932286         1.751542
 C         0.884887         2.268480         1.496126
 C         2.125948         1.565480         1.173769
 O         1.808814         0.767498        -0.118861
 C         0.942198        -0.053357         0.701387
 C         0.447870        -1.299274         0.094518
 C         1.587341         0.321387         2.050794
 O         1.839128        -0.575644         3.097120
 H        -1.023728         1.394423         3.380345
 H        -1.853913         1.259035         1.916769
 H        -1.255939        -0.282503         2.767835
 H         0.361817         2.905319         0.673497
 H         1.028670         2.866815         2.418325
 H         3.080607         2.054039         1.138647
 H         0.011296        -1.132657        -0.930526
 H         1.243120        -2.219268         0.213268
 H        -0.317691        -1.631833         0.748385
 H         2.736303        -0.966853         2.954749
