19
Iteration:  3118charge 0 multiplicity 1
 C        -1.107670         0.767865         2.422154
 C         0.250924         1.006155         1.778891
 C         0.959137         2.330073         1.436859
 C         2.279233         1.493821         1.097543
 O         1.835502         0.781739        -0.034520
 C         0.866838         0.010590         0.705903
 C         0.400416        -1.428616         0.125237
 C         1.512878         0.249127         2.056196
 O         1.867699        -0.477841         3.151868
 H        -0.897433         0.817967         3.458134
 H        -1.939849         1.485058         2.122521
 H        -1.372454        -0.280627         2.361452
 H         0.616036         2.719034         0.402803
 H         1.207398         2.998083         2.298179
 H         3.307903         2.031368         0.905460
 H        -0.036863        -2.016573         0.921490
 H        -0.412107        -1.138188        -0.564729
 H         1.251433        -1.966063        -0.416224
 H         1.637739        -1.408468         2.876710
