19
Iteration:  2173charge 0 multiplicity 1
 C        -0.973363         0.752597         2.529212
 C         0.254267         0.968252         1.759933
 C         0.931423         2.316151         1.441860
 C         2.154991         1.551944         1.147884
 O         1.837439         0.767819        -0.052935
 C         0.935243         0.022001         0.630343
 C         0.433446        -1.294745         0.152722
 C         1.543279         0.294838         2.015002
 O         1.790331        -0.701619         3.024361
 H        -1.685936         1.636613         2.327317
 H        -1.516979        -0.025479         2.022597
 H        -0.935844         0.409519         3.566456
 H         0.543689         3.062941         0.707949
 H         0.987665         2.960119         2.326972
 H         3.163223         2.037718         1.031452
 H        -0.086727        -1.679141         0.996275
 H        -0.492156        -1.272916        -0.590361
 H         1.282493        -1.781240        -0.302579
 H         1.899222        -0.502496         3.950483
