19
Iteration:   535
 C        -1.286045         0.726841         2.129027
 C         0.241545         0.938136         1.965797
 C         0.938540         2.321940         1.449748
 C         2.175637         1.402389         1.159384
 O         1.723958         0.722740        -0.058013
 C         0.951792        -0.050493         0.811640
 C         0.327362        -1.243654         0.184800
 C         1.598191         0.241752         2.080694
 O         2.206815        -0.503174         3.051977
 H        -1.746372         0.791332         3.157310
 H        -1.574119         1.762081         1.720147
 H        -1.741498        -0.006270         1.402146
 H         0.552664         2.948985         0.647491
 H         1.076960         2.948479         2.375618
 H         3.259837         1.744761         1.014036
 H        -0.339672        -1.655325         1.064053
 H        -0.402536        -0.897805        -0.673592
 H         0.882660        -2.096767        -0.095924
 H         2.340318         0.138257         3.826654
