19
Iteration:  2403
 C        -1.109358         0.746076         2.424450
 C         0.162785         1.035746         1.675174
 C         0.979667         2.356848         1.451640
 C         2.186656         1.394557         1.225870
 O         1.843345         0.699351        -0.074013
 C         0.820528         0.074173         0.731588
 C         0.360505        -1.307317         0.131059
 C         1.519402         0.244145         1.993292
 O         2.031312        -0.578453         3.062977
 H        -0.988301         0.905336         3.581346
 H        -1.968514         1.341375         2.213180
 H        -1.318784        -0.268066         2.147561
 H         0.866130         3.062730         0.533812
 H         0.767997         3.026155         2.336506
 H         3.317434         1.850920         1.379504
 H         0.036543        -1.879578         0.960326
 H        -0.515433        -1.277845        -0.627316
 H         1.273558        -1.870804        -0.156518
 H         2.048155        -0.116718         3.912669
