19
Iteration:  3505charge 0 multiplicity 1
 C        -1.064432         0.657051         2.362349
 C         0.306013         1.007067         1.870089
 C         0.861335         2.346398         1.451950
 C         2.117693         1.446171         1.141993
 O         1.873606         0.735370        -0.024180
 C         0.956776        -0.092885         0.718114
 C         0.280116        -1.235341         0.009152
 C         1.599440         0.262563         2.045231
 O         1.958158        -0.485661         3.118620
 H        -1.440518         1.412264         3.066400
 H        -1.829352         0.666165         1.566372
 H        -0.942561        -0.376895         2.863121
 H         0.521178         2.945890         0.640519
 H         1.106148         2.952392         2.237485
 H         3.185925         1.608364         1.198751
 H        -0.165768        -1.785460         0.877492
 H        -0.395245        -0.798529        -0.789174
 H         1.048954        -1.805846        -0.568639
 H         1.481311        -0.263901         3.921964
