19
Iteration:  4030
 C        -1.192346         0.720842         2.127245
 C         0.215187         0.968181         1.795720
 C         0.940321         2.247440         1.570193
 C         2.221962         1.392240         1.257409
 O         1.811820         0.794582        -0.065569
 C         0.895393         0.052355         0.791393
 C         0.273664        -1.285547         0.284420
 C         1.541613         0.306932         2.053032
 O         2.182394        -0.545933         2.914668
 H        -1.497759         1.498011         2.773647
 H        -1.958291         0.802602         1.363971
 H        -1.579545        -0.191390         2.608269
 H         0.525566         2.910122         0.812627
 H         1.095562         2.810950         2.555380
 H         3.287809         1.548562         1.223903
 H        -0.336852        -1.833663         1.015388
 H        -0.590956        -0.852638        -0.326307
 H         0.805173        -2.076170        -0.256344
 H         2.160952        -0.181168         3.795281
