19
Iteration:  3287charge 0 multiplicity 1
 C        -1.067870         0.719932         2.346660
 C         0.266594         0.938087         1.801042
 C         0.924700         2.288162         1.391682
 C         2.135365         1.465107         1.115574
 O         1.890123         0.720943        -0.050566
 C         0.894246        -0.009673         0.719548
 C         0.232248        -1.198945         0.024006
 C         1.618841         0.276110         2.082218
 O         2.003924        -0.530569         3.200731
 H        -1.177239         1.202626         3.398369
 H        -1.766526         0.858086         1.592055
 H        -1.281137        -0.405445         2.624677
 H         0.563091         3.077990         0.625452
 H         1.129753         3.120245         2.240773
 H         3.104083         1.881024         1.280811
 H         0.074697        -1.849294         0.932860
 H        -0.727544        -1.081992        -0.496384
 H         1.028713        -1.683609        -0.496556
 H         1.262909        -0.669044         3.835545
