19
Iteration:  3302charge 0 multiplicity 1
 C        -1.077413         0.698816         2.383694
 C         0.279677         0.989695         1.789857
 C         0.919822         2.284872         1.473820
 C         2.234672         1.444277         1.147050
 O         1.832267         0.707616        -0.103003
 C         0.900315         0.019288         0.739299
 C         0.359998        -1.230395         0.130123
 C         1.533932         0.237042         2.046077
 O         1.917308        -0.532487         3.121993
 H        -1.201802         1.258568         3.319747
 H        -1.894378         1.211532         1.762783
 H        -1.255848        -0.312447         2.478227
 H         0.506949         2.666840         0.593524
 H         1.017191         2.884621         2.285279
 H         3.241756         1.902687         0.978051
 H         0.183349        -2.087790         0.737219
 H        -0.536705        -0.936283        -0.494279
 H         1.097713        -1.447814        -0.646671
 H         1.595598        -0.028077         3.874865
