19
Iteration:  1457charge 0 multiplicity 1
 C        -1.144489         0.680254         2.297406
 C         0.207234         0.884197         1.725479
 C         0.948803         2.264170         1.485943
 C         2.204548         1.513384         1.228750
 O         1.892474         0.784610        -0.066637
 C         0.940582        -0.064658         0.734268
 C         0.228886        -1.191860         0.157587
 C         1.611836         0.268702         2.027925
 O         1.987766        -0.493068         3.070117
 H        -1.976372         0.766093         1.575733
 H        -1.106604        -0.379394         2.621256
 H        -1.244237         1.238003         3.255016
 H         0.750244         2.924461         0.662964
 H         0.896388         2.645744         2.525152
 H         3.205265         1.808407         1.318734
 H        -0.159592        -1.882186         0.858235
 H        -0.555466        -0.725855        -0.460002
 H         0.886179        -1.863647        -0.551216
 H         1.814271        -0.202279         3.955425
