19
Iteration:  2817charge 0 multiplicity 1
 C        -1.178562         0.769378         2.300311
 C         0.227058         0.897620         1.760708
 C         0.917690         2.228403         1.444616
 C         2.202799         1.487964         1.112470
 O         1.815897         0.741414        -0.088842
 C         1.051124        -0.126729         0.741476
 C         0.175816        -1.163775         0.110940
 C         1.687035         0.266700         2.131818
 O         2.000447        -0.468564         3.240692
 H        -1.478179         1.525920         3.085283
 H        -1.829324         0.968989         1.490484
 H        -1.308997        -0.252137         2.669325
 H         0.476436         2.922214         0.658075
 H         0.910114         2.641882         2.443933
 H         3.078648         1.914031         1.064257
 H        -0.536641        -1.677087         0.718349
 H        -0.366910        -0.545125        -0.689839
 H         0.745538        -1.908485        -0.499949
 H         2.814109        -1.028179         3.121842
