19
Iteration:   738
 C        -1.231765         0.744550         2.120564
 C         0.249887         0.964383         1.895339
 C         0.897997         2.277844         1.514943
 C         2.177506         1.474214         1.252688
 O         1.748463         0.713974        -0.097303
 C         0.993785        -0.044805         0.734558
 C         0.193317        -1.159752         0.200406
 C         1.583343         0.281697         2.042648
 O         2.205886        -0.598486         3.092017
 H        -1.617137         1.476814         2.818379
 H        -1.820348         0.574439         1.231849
 H        -1.337357        -0.213172         2.605118
 H         0.493688         2.788237         0.594537
 H         1.017475         3.030458         2.276573
 H         3.231249         1.762013         1.388092
 H        -0.416304        -1.633372         0.855025
 H        -0.332655        -0.876450        -0.709747
 H         0.989463        -1.992954        -0.058164
 H         2.714406         0.016040         3.662027
