19
Iteration:   936
 C        -1.164413         0.761374         2.177477
 C         0.260320         0.903749         1.839687
 C         0.854389         2.321224         1.645224
 C         2.200752         1.451540         1.201140
 O         1.806487         0.747794        -0.057904
 C         0.928925        -0.070409         0.727989
 C         0.184345        -1.147179         0.105229
 C         1.548190         0.240767         2.038297
 O         2.240425        -0.579806         3.005343
 H        -1.506368        -0.310315         2.367245
 H        -1.314839         1.188425         3.223616
 H        -1.735062         1.407772         1.467437
 H         0.418313         3.002313         0.943924
 H         1.108857         2.694869         2.631410
 H         3.278506         1.947936         1.224903
 H        -0.508908        -1.598133         0.748864
 H        -0.402129        -0.838190        -0.787159
 H         0.976248        -1.941314         0.006997
 H         1.752975        -0.536354         3.897914
