19
Iteration:  2381
 C        -1.054301         0.811345         2.520918
 C         0.175005         0.947898         1.725885
 C         0.975364         2.302617         1.451699
 C         2.208574         1.453986         1.146257
 O         1.850199         0.804841        -0.065848
 C         0.970520        -0.044851         0.724985
 C         0.435001        -1.401355         0.147684
 C         1.453254         0.281601         1.992574
 O         1.844662        -0.542227         2.990520
 H        -0.796653         0.879727         3.662320
 H        -1.663988         1.680306         2.380684
 H        -1.642765        -0.060164         2.280623
 H         0.487408         3.062437         0.751834
 H         1.132457         2.900098         2.398244
 H         3.358629         1.736690         1.067747
 H         0.246344        -2.158481         0.874845
 H        -0.535932        -1.214133        -0.434553
 H         1.255557        -1.785852        -0.494360
 H         1.633314        -0.216953         3.897529
