19
Iteration:  3687charge 0 multiplicity 1
 C        -1.058652         0.611209         2.412897
 C         0.310423         1.000041         1.894704
 C         0.895416         2.371050         1.423332
 C         2.220245         1.398484         1.166931
 O         1.785559         0.711211        -0.031846
 C         0.991523        -0.132646         0.705758
 C         0.259229        -1.124241        -0.030760
 C         1.559110         0.258005         1.970960
 O         1.995531        -0.455637         3.172591
 H        -1.718782         1.235337         3.022408
 H        -1.771761         0.286932         1.594784
 H        -0.920831        -0.267531         2.989194
 H         0.483983         2.750946         0.548486
 H         0.924443         3.153328         2.234892
 H         3.309784         1.649715         1.327694
 H        -0.706388        -1.362690         0.525259
 H        -0.000072        -0.836849        -1.010507
 H         0.747984        -2.083951        -0.238511
 H         1.591930         0.044800         3.941631
