19
Iteration:  4270charge 0 multiplicity 1
 C        -1.245996         0.760379         2.177059
 C         0.253138         0.981517         1.787739
 C         0.953139         2.286971         1.597586
 C         2.161628         1.526270         1.174306
 O         1.784432         0.813780        -0.115204
 C         0.893252        -0.079784         0.824480
 C         0.296829        -1.329637         0.294059
 C         1.650963         0.263424         1.991857
 O         2.082294        -0.606369         3.012749
 H        -1.613684         1.432359         3.044185
 H        -1.697889         1.288465         1.313377
 H        -1.685269        -0.313490         2.230902
 H         0.592453         2.962955         0.823579
 H         1.233747         2.967243         2.449147
 H         3.230574         1.839069         1.229688
 H         0.042839        -2.148660         1.007875
 H        -0.521340        -1.144321        -0.469788
 H         1.214829        -1.691517        -0.291057
 H         2.338798        -0.182109         3.844118
