19
Iteration:  3946charge 0 multiplicity 1
 C        -1.034834         0.654135         2.550042
 C         0.201558         1.060957         1.784820
 C         0.916853         2.340533         1.492205
 C         2.171850         1.393202         1.176826
 O         1.871965         0.722612        -0.164630
 C         0.947671        -0.032905         0.612194
 C         0.367291        -1.247310         0.012749
 C         1.474846         0.275627         2.051689
 O         1.899520        -0.505379         3.134157
 H        -0.984609         1.204229         3.541079
 H        -1.908684         0.856337         1.994758
 H        -0.708383        -0.361416         2.805528
 H         0.613445         2.964937         0.635017
 H         0.966117         2.807316         2.432028
 H         3.236197         1.746419         1.122606
 H        -0.305415        -1.742732         0.729810
 H        -0.040750        -1.146940        -1.002605
 H         1.170297        -1.887310        -0.191735
 H         1.628156        -0.004996         3.957690
