19
Iteration:  3285charge 0 multiplicity 1
 C        -1.074738         0.713452         2.355172
 C         0.269065         0.946488         1.793145
 C         0.917400         2.292046         1.387126
 C         2.143456         1.469785         1.113930
 O         1.891421         0.724798        -0.039764
 C         0.902952        -0.013442         0.728413
 C         0.216377        -1.206793         0.012742
 C         1.618206         0.277049         2.080471
 O         2.015173        -0.527144         3.206255
 H        -1.197690         1.221373         3.320912
 H        -1.807526         0.862275         1.581237
 H        -1.260250        -0.410101         2.618583
 H         0.585053         3.071209         0.599145
 H         1.108814         3.063854         2.284416
 H         3.134617         1.856725         1.288039
 H         0.033333        -1.808471         0.965746
 H        -0.718045        -1.053576        -0.482571
 H         1.014555        -1.755772        -0.542759
 H         1.254687        -0.710162         3.761667
