19
Iteration:  3794
 C        -1.166662         0.818936         2.208943
 C         0.280057         1.010092         1.811456
 C         0.894377         2.275879         1.582347
 C         2.149964         1.507558         1.104472
 O         1.710424         0.775356        -0.057082
 C         0.974441        -0.039321         0.707327
 C         0.395937        -1.347236         0.223576
 C         1.540189         0.319218         2.103485
 O         2.068472        -0.656201         2.999388
 H        -1.200880         1.241305         3.293403
 H        -1.658826         1.384627         1.473657
 H        -1.362591        -0.213800         2.055415
 H         0.579700         3.142329         0.882069
 H         1.224924         2.738416         2.544449
 H         3.142972         2.024513         1.051566
 H         0.208461        -1.926947         1.189411
 H        -0.521837        -1.249668        -0.405296
 H         1.214306        -1.878956        -0.244116
 H         1.647639        -0.471330         3.887847
