19
Iteration:  1227charge 0 multiplicity 1
 C        -1.053650         0.774587         2.457110
 C         0.164102         0.991605         1.747979
 C         1.021751         2.265744         1.603146
 C         2.199378         1.486544         1.239525
 O         1.845966         0.829260        -0.116960
 C         0.896025         0.037470         0.653993
 C         0.422327        -1.257596         0.064483
 C         1.494529         0.156685         1.985185
 O         1.877763        -0.616718         3.028934
 H        -0.737962         0.748565         3.519461
 H        -1.968732         1.428610         2.331506
 H        -1.533993        -0.252362         2.234335
 H         0.540839         3.059479         0.928491
 H         1.461130         2.903401         2.464180
 H         3.208069         1.727533         1.158943
 H         0.236906        -2.029491         0.778913
 H        -0.523496        -1.262289        -0.396342
 H         1.321988        -1.564464        -0.627352
 H         1.237278        -0.377385         3.700804
