19
Iteration:   884charge 0 multiplicity 1
 C        -1.074931         0.698814         2.367324
 C         0.228369         0.970654         1.756466
 C         0.905777         2.314024         1.538101
 C         2.142266         1.393359         1.238273
 O         1.858387         0.743556        -0.082241
 C         0.843807         0.036221         0.693067
 C         0.306367        -1.199440         0.091087
 C         1.534432         0.286889         2.032656
 O         2.048712        -0.604932         3.042966
 H        -1.599885        -0.021848         1.771819
 H        -0.900097         0.185886         3.303246
 H        -1.672856         1.538758         2.584008
 H         0.680558         2.948479         0.693082
 H         1.123256         2.941604         2.465693
 H         3.205683         1.826536         1.281610
 H        -0.480173        -1.715461         0.750835
 H        -0.297177        -0.702209        -0.695259
 H         0.964460        -1.891851        -0.261546
 H         2.386379        -0.096921         3.836070
