19
Iteration:  3040
 C        -1.236835         0.720041         2.225262
 C         0.225416         0.997640         1.801261
 C         1.000775         2.253273         1.512604
 C         2.156528         1.358890         1.243201
 O         1.839738         0.681880        -0.029671
 C         1.041265        -0.140346         0.746751
 C         0.159247        -1.113537         0.128422
 C         1.510384         0.232318         2.027191
 O         2.115612        -0.391274         3.122065
 H        -1.756678         1.411729         2.862643
 H        -1.877322         0.505653         1.282892
 H        -1.243670        -0.214398         2.779952
 H         0.638170         2.717766         0.456998
 H         1.035687         3.060670         2.356406
 H         3.298053         1.685296         1.348820
 H        -0.513481        -1.509280         0.943126
 H        -0.413991        -0.553350        -0.664264
 H         0.728406        -1.968501        -0.321100
 H         3.098286        -0.244301         2.978737
