19
Iteration:  1410
 C        -1.142611         0.758342         2.441022
 C         0.181173         1.038276         1.754806
 C         0.931370         2.351506         1.510243
 C         2.267710         1.467941         1.199290
 O         1.792288         0.766870        -0.058087
 C         0.962351        -0.010331         0.734644
 C         0.478922        -1.318813         0.154665
 C         1.548602         0.305170         2.040881
 O         1.832087        -0.663343         2.909640
 H        -1.668104         0.163665         1.739510
 H        -1.094397         0.312681         3.449341
 H        -1.617256         1.771276         2.560258
 H         0.625432         2.903373         0.664940
 H         1.241169         2.834870         2.450449
 H         3.226520         2.099248         1.279100
 H         0.324146        -2.152558         0.927436
 H        -0.313729        -1.264329        -0.517490
 H         1.320860        -1.763800        -0.395071
 H         1.784743        -0.425510         3.891047
