19
Iteration:   731charge 0 multiplicity 1
 C        -1.204545         0.723691         2.141224
 C         0.240667         0.969170         1.939104
 C         0.854753         2.293472         1.525556
 C         2.197485         1.416219         1.198750
 O         1.803889         0.731149        -0.144315
 C         0.935240        -0.014828         0.785621
 C         0.223060        -1.179160         0.207615
 C         1.600490         0.274348         2.103310
 O         2.182378        -0.586282         3.067617
 H        -1.657897         1.442308         2.843836
 H        -1.565493         0.832861         1.066542
 H        -1.490470        -0.305189         2.433244
 H         0.382613         2.628919         0.611506
 H         0.996200         3.119298         2.304370
 H         3.274250         1.869289         1.057830
 H        -0.569788        -1.688928         0.919177
 H        -0.259493        -0.828076        -0.762789
 H         0.891601        -1.901328        -0.150695
 H         2.615915        -0.045455         3.805554
