19
Iteration:   685charge 0 multiplicity 1
 C        -1.150477         0.770999         2.367067
 C         0.169731         0.954065         1.653621
 C         0.925691         2.351394         1.469578
 C         2.171538         1.418919         1.200907
 O         1.870915         0.795891        -0.122967
 C         0.914983        -0.088769         0.734020
 C         0.337123        -1.309684         0.247296
 C         1.496157         0.302586         2.020523
 O         2.098961        -0.546473         3.050170
 H        -0.854032         0.648596         3.408797
 H        -1.816190         1.616214         2.183444
 H        -1.664980        -0.124062         2.128693
 H         0.692467         3.029889         0.611657
 H         0.797676         2.826229         2.460206
 H         3.280051         1.678777         1.487015
 H        -0.168790        -1.721111         1.074147
 H        -0.389111        -1.104464        -0.582684
 H         1.089339        -2.115550        -0.137016
 H         1.701541        -0.276565         3.912951
