19
Iteration:  1936
 C        -1.164314         0.777482         2.534599
 C         0.232527         0.922355         1.797589
 C         0.872610         2.321143         1.477312
 C         2.234429         1.441480         1.196050
 O         1.871584         0.789303         0.001847
 C         0.974293        -0.069497         0.595355
 C         0.367472        -1.307315         0.056229
 C         1.617405         0.308819         1.972110
 O         1.901698        -0.564497         3.011349
 H        -1.663151         1.696051         2.529466
 H        -1.795357         0.051705         1.984483
 H        -1.011793         0.414602         3.594981
 H         0.637379         2.978776         0.645299
 H         0.934416         2.898986         2.421456
 H         3.252412         1.967449         1.151095
 H        -0.045002        -1.875947         0.874458
 H        -0.439548        -1.166867        -0.584974
 H         1.220735        -1.937840        -0.475775
 H         1.484985        -0.118200         3.801590
