19
Iteration:  3430
 C        -1.287921         0.656193         2.282876
 C         0.157788         0.993189         1.809237
 C         0.932667         2.295610         1.514262
 C         2.200807         1.375859         1.214794
 O         1.897368         0.742838        -0.010446
 C         0.929398        -0.098274         0.687358
 C         0.243764        -1.223148         0.072074
 C         1.545888         0.279689         2.005239
 O         2.210959        -0.379760         3.108296
 H        -1.470775         1.479239         3.100743
 H        -2.002763         0.691883         1.488704
 H        -1.455086        -0.295282         2.910995
 H         0.614301         3.065161         0.685709
 H         1.339102         2.906498         2.476870
 H         3.219136         1.714904         1.391468
 H        -0.723237        -1.205809         0.598776
 H         0.035050        -0.943714        -1.036245
 H         0.881233        -2.074699         0.315709
 H         1.729636        -1.249805         3.182798
