19
Iteration:   566charge 0 multiplicity 1
 C        -1.215515         0.699413         2.241077
 C         0.135016         0.968337         1.584446
 C         0.871153         2.349518         1.480964
 C         2.172939         1.422698         1.238490
 O         1.935199         0.692327        -0.005948
 C         0.873094        -0.080213         0.810264
 C         0.198918        -1.277121         0.227393
 C         1.685127         0.288978         2.041338
 O         2.202498        -0.471603         3.021568
 H        -1.096654         0.445403         3.353773
 H        -1.625877         1.721452         2.152281
 H        -1.879709        -0.094991         1.942613
 H         0.654444         3.152975         0.779051
 H         0.913440         2.659103         2.516084
 H         3.200104         1.903819         1.256642
 H        -0.525249        -1.527923         0.948387
 H        -0.436575        -0.863852        -0.625595
 H         0.653577        -2.162554        -0.114428
 H         1.862647         0.012450         3.757586
