19
Iteration:   841charge 0 multiplicity 1
 C        -1.025667         0.737929         2.509694
 C         0.210410         0.978855         1.728897
 C         0.910446         2.322719         1.520770
 C         2.225947         1.429190         1.141262
 O         1.875050         0.818626        -0.126991
 C         0.921095        -0.006134         0.712486
 C         0.419083        -1.235523         0.086928
 C         1.517831         0.200655         1.985881
 O         1.819181        -0.603138         3.036571
 H        -1.997663         0.622436         2.111143
 H        -0.861061        -0.182058         3.044025
 H        -0.989699         1.477207         3.261905
 H         0.389179         2.980816         0.834265
 H         1.026744         2.803596         2.555389
 H         3.270683         1.863573         1.218018
 H         0.003971        -1.908848         0.973933
 H        -0.435160        -1.160858        -0.607728
 H         1.201604        -1.794408        -0.290194
 H         1.688367        -0.040736         3.810701
