19
Iteration:  2405charge 0 multiplicity 1
 C        -1.100697         0.738666         2.406215
 C         0.149091         1.028766         1.690566
 C         0.977173         2.350753         1.446119
 C         2.206775         1.399411         1.213116
 O         1.851819         0.705432        -0.081138
 C         0.826255         0.079203         0.736297
 C         0.350689        -1.288769         0.135890
 C         1.500764         0.235673         2.028786
 O         2.045723        -0.575092         3.063163
 H        -0.977910         0.919974         3.559521
 H        -1.995291         1.329066         2.099303
 H        -1.324335        -0.303001         2.137881
 H         0.787851         3.067264         0.576262
 H         0.766049         3.025971         2.319849
 H         3.247064         1.727876         1.302196
 H        -0.091853        -1.897022         0.974409
 H        -0.548876        -1.258849        -0.632162
 H         1.315419        -1.847290        -0.136669
 H         2.098185        -0.134084         3.905649
