19
Iteration:  4694
 C        -1.142693         0.698121         2.424338
 C         0.151372         0.949951         1.711944
 C         0.953189         2.239386         1.562434
 C         2.179775         1.523685         1.169210
 O         1.881478         0.743846        -0.125927
 C         0.910160         0.006911         0.676141
 C         0.340253        -1.285504         0.264571
 C         1.552066         0.286005         2.028996
 O         1.958427        -0.473058         3.014701
 H        -1.083021         1.181878         3.369623
 H        -2.029319         0.945437         1.875325
 H        -1.224848        -0.299179         2.603976
 H         0.523473         2.841760         0.756627
 H         0.904046         2.844994         2.374456
 H         3.197564         1.842801         1.359557
 H         0.334465        -1.170936        -0.842239
 H         0.956275        -2.188274         0.526810
 H        -0.735956        -1.523064         0.386007
 H         2.942487        -0.583613         3.023728
