19
Iteration:  3729
 C        -1.002772         0.657517         2.475862
 C         0.197684         0.958622         1.623159
 C         0.779454         2.330074         1.476404
 C         2.209574         1.449154         1.191317
 O         1.930430         0.681357         0.015405
 C         0.930982        -0.022395         0.764483
 C         0.270246        -1.196164         0.012498
 C         1.658185         0.270058         1.995977
 O         1.895486        -0.520939         3.067296
 H        -1.212186         1.669112         3.055424
 H        -1.969438         0.298712         2.079824
 H        -0.851062        -0.045585         3.275614
 H         0.379051         3.009543         0.786753
 H         0.822194         2.856660         2.413351
 H         3.229073         1.892937         0.974356
 H        -0.653478        -1.588621         0.550162
 H        -0.207292        -0.837989        -0.948890
 H         1.074411        -1.954603        -0.090071
 H         2.213518         0.006221         3.809270
