19
Iteration:  1071
 C        -1.110912         0.718245         2.457675
 C         0.161583         0.948909         1.748247
 C         1.068719         2.267294         1.612882
 C         2.209377         1.433651         1.199671
 O         1.833823         0.802847        -0.064688
 C         0.902934         0.053322         0.653588
 C         0.289462        -1.176944         0.008683
 C         1.476206         0.187435         2.008855
 O         2.043830        -0.598971         3.023854
 H        -1.379000         1.496225         3.206817
 H        -1.948767         0.630103         1.696971
 H        -1.045711        -0.278138         2.953818
 H         0.530620         3.008321         0.960916
 H         1.202406         2.778100         2.585822
 H         3.199304         1.900352         1.272697
 H        -0.411605        -1.794502         0.689078
 H        -0.218668        -0.770374        -0.802799
 H         0.983230        -1.891025        -0.361744
 H         1.639719        -0.284312         3.878911
