19
Iteration:  2875
 C        -1.267727         0.710827         2.302468
 C         0.195789         0.951141         1.675751
 C         1.047030         2.341972         1.519461
 C         2.141788         1.414111         1.169494
 O         1.858736         0.673885        -0.006707
 C         0.962234        -0.040478         0.803423
 C         0.268501        -1.273209         0.137846
 C         1.568415         0.306373         2.037745
 O         2.061867        -0.409854         3.078244
 H        -1.228662         0.776071         3.400028
 H        -1.863677         1.562869         1.938184
 H        -1.862019        -0.124191         2.023075
 H         0.818636         3.139388         0.851155
 H         1.020301         2.793755         2.539228
 H         3.163167         1.970846         1.042869
 H        -0.252563        -1.809662         0.950286
 H        -0.386771        -0.999589        -0.633929
 H         1.006357        -1.941949        -0.239420
 H         2.424208        -1.275341         2.942611
