19
Iteration:  1667
 C        -1.257501         0.683236         2.179423
 C         0.189375         0.882216         1.835237
 C         0.904166         2.264924         1.448243
 C         2.198240         1.404850         1.154242
 O         1.822593         0.712478        -0.039724
 C         1.003701        -0.057886         0.779740
 C         0.264483        -1.184978         0.072366
 C         1.558247         0.334242         2.130732
 O         2.219177        -0.458888         3.170841
 H        -1.392858         0.594480         3.316753
 H        -1.818344         1.600333         1.942215
 H        -1.933837        -0.068166         1.830347
 H         0.235567         2.501385         0.615621
 H         1.119688         3.006161         2.240736
 H         3.165227         1.878758         1.047883
 H        -0.239099        -1.913609         0.702340
 H        -0.369271        -0.621671        -0.703768
 H         0.887569        -1.780186        -0.550460
 H         1.920200         0.062987         3.977263
