19
Iteration:  2868
 C        -1.312061         0.669917         2.272233
 C         0.120979         1.002914         1.733088
 C         1.065825         2.365147         1.533461
 C         2.209349         1.359350         1.150498
 O         1.864134         0.652391        -0.038034
 C         0.929344        -0.064777         0.727782
 C         0.264682        -1.210377         0.129041
 C         1.539534         0.298867         2.106391
 O         2.133896        -0.380092         3.108937
 H        -1.200376         0.759647         3.333139
 H        -2.068534         1.469441         1.959328
 H        -1.766668        -0.350439         1.966721
 H         0.719105         3.097505         0.749281
 H         1.099504         2.925208         2.478991
 H         3.331714         1.864722         1.284976
 H        -0.224899        -1.715688         0.989649
 H        -0.477241        -0.928954        -0.659817
 H         0.978321        -2.020131        -0.185564
 H         2.391326        -1.263122         2.832293
