19
Iteration:  3249charge 0 multiplicity 1
 C        -1.132581         0.650098         2.294366
 C         0.225756         0.949336         1.738458
 C         0.933067         2.235879         1.477498
 C         2.147187         1.359754         1.250578
 O         1.916547         0.683454        -0.035711
 C         0.913297        -0.052047         0.686813
 C         0.181245        -1.093307         0.088953
 C         1.522562         0.243309         2.040823
 O         2.150977        -0.302655         3.152613
 H        -1.373346         1.384952         3.006812
 H        -1.948608         0.716507         1.449517
 H        -1.249642        -0.215975         2.879871
 H         0.664127         2.983082         0.700539
 H         1.070369         2.666937         2.428800
 H         3.224523         1.644061         1.466396
 H        -0.477533        -1.505472         0.849760
 H        -0.474872        -0.734202        -0.734714
 H         0.672266        -2.080079        -0.250176
 H         1.894998        -1.218386         3.115817
