19
Iteration:   616charge 0 multiplicity 1
 C        -1.067532         0.741557         2.505498
 C         0.309447         0.979943         1.756667
 C         0.935396         2.350919         1.355209
 C         2.244643         1.596563         1.034696
 O         1.771892         0.674531        -0.051831
 C         0.888256        -0.020576         0.789729
 C         0.429651        -1.272467         0.103060
 C         1.607909         0.233843         2.082336
 O         1.795547        -0.579874         3.123722
 H        -0.925176         0.269889         3.466295
 H        -1.639131         1.663441         2.559698
 H        -1.620084        -0.078488         1.971383
 H         0.469293         2.739924         0.400232
 H         0.843067         3.069602         2.181571
 H         3.247773         1.741394         0.848332
 H        -0.020033        -2.090450         0.724730
 H        -0.124773        -1.114869        -0.797147
 H         1.439561        -1.713704        -0.303268
 H         1.629724        -0.077852         3.982956
