19
Iteration:  2341charge 0 multiplicity 1
 C        -1.006099         0.800827         2.467780
 C         0.293627         0.961462         1.732155
 C         0.930004         2.307277         1.431331
 C         2.215576         1.550032         1.028713
 O         1.797559         0.816962        -0.043445
 C         0.901872        -0.061560         0.714762
 C         0.431877        -1.320348         0.145421
 C         1.544329         0.194521         2.066017
 O         1.833766        -0.629802         3.105407
 H        -0.845642         0.771171         3.522256
 H        -1.650521         1.692918         2.198676
 H        -1.662180        -0.040592         2.141443
 H         0.638047         2.911745         0.589875
 H         0.815363         2.913923         2.334512
 H         3.103097         2.016086         0.965580
 H         0.248541        -2.118273         0.915273
 H        -0.622528        -1.270331        -0.317987
 H         1.296794        -1.555986        -0.554604
 H         1.401114        -0.264152         3.886143
