19
Iteration:  1195
 C        -1.135546         0.745539         2.392971
 C         0.239466         0.912476         1.814165
 C         1.017466         2.320560         1.533209
 C         2.243677         1.534141         1.157388
 O         1.761217         0.894311        -0.045376
 C         0.942877         0.007370         0.790346
 C         0.403121        -1.269509         0.107395
 C         1.641521         0.257411         2.038528
 O         1.782221        -0.736708         2.938393
 H        -1.151030         1.400543         3.305568
 H        -1.887746         1.222171         1.696395
 H        -1.309367        -0.331944         2.717925
 H         0.525219         2.881136         0.694129
 H         1.379669         2.720451         2.481427
 H         3.251973         1.842288         1.069049
 H         0.170246        -1.995005         0.812815
 H        -0.392686        -0.999592        -0.598758
 H         1.172214        -1.703563        -0.653306
 H         1.865404        -0.413750         3.884556
