19
Iteration:  1390
 C        -1.157127         0.824137         2.370510
 C         0.245393         0.958042         1.780316
 C         0.967973         2.306293         1.467467
 C         2.183868         1.564059         1.116038
 O         1.791291         0.837954        -0.081918
 C         0.892840         0.041952         0.754023
 C         0.527233        -1.273916         0.181129
 C         1.592176         0.247695         2.098032
 O         1.839937        -0.816713         2.993277
 H        -1.663919        -0.070816         2.077029
 H        -1.044525         0.802342         3.479248
 H        -1.680292         1.811968         2.277153
 H         0.440969         2.806847         0.685139
 H         0.942354         2.805802         2.493356
 H         3.234108         1.828518         1.058322
 H         0.090863        -1.981719         0.929268
 H        -0.242798        -1.202223        -0.570674
 H         1.505088        -1.737252        -0.294430
 H         1.842791        -0.186064         3.776517
