19
Iteration:  4057charge 0 multiplicity 1
 C        -1.254622         0.776154         2.129346
 C         0.181147         1.048885         1.779803
 C         0.966450         2.326613         1.573392
 C         2.196476         1.559484         1.164767
 O         1.780096         0.764446        -0.064575
 C         0.832406         0.015173         0.739476
 C         0.266475        -1.351527         0.220365
 C         1.638108         0.252767         2.112345
 O         2.240655        -0.704076         3.072515
 H        -1.708656         1.232348         3.112722
 H        -1.943681         1.183643         1.306236
 H        -1.586241        -0.292395         2.123650
 H         0.560301         3.061774         0.854641
 H         1.147631         2.831572         2.477519
 H         3.210739         1.954729         0.969494
 H        -0.145662        -1.981872         1.047703
 H        -0.629867        -1.176876        -0.398970
 H         1.009081        -1.969116        -0.341892
 H         2.403210        -0.102364         3.798982
