19
Iteration:  4832
 C        -1.105102         0.559111         2.184572
 C         0.300783         0.921159         1.832598
 C         0.919830         2.283078         1.466637
 C         2.203488         1.441941         1.149464
 O         1.793330         0.810538        -0.073600
 C         0.930644        -0.066609         0.738832
 C         0.129762        -1.150218         0.086584
 C         1.601947         0.241458         2.119903
 O         2.078786        -0.405472         3.264701
 H        -1.423795         1.246099         2.984239
 H        -1.647290         0.771415         1.246964
 H        -1.386957        -0.483523         2.525298
 H         0.514918         2.819901         0.563893
 H         0.975402         2.943277         2.399324
 H         3.143107         1.932424         0.997808
 H        -0.754023        -0.776873        -0.399570
 H         0.748234        -1.696074        -0.506466
 H        -0.219058        -1.855544         0.878567
 H         2.879706        -0.892958         3.031635
