19
Iteration:  2524
 C        -1.096056         0.811136         2.480605
 C         0.207568         0.953512         1.691976
 C         0.908986         2.267367         1.542117
 C         2.201173         1.447561         1.159473
 O         1.833429         0.757041        -0.078708
 C         0.884418        -0.021859         0.734383
 C         0.425076        -1.265225         0.064803
 C         1.588239         0.270294         1.995895
 O         1.894881        -0.630490         3.054233
 H        -1.550770         1.819328         2.298050
 H        -1.753251         0.016329         2.297397
 H        -0.947676         0.759043         3.538932
 H         0.495042         2.888540         0.720835
 H         1.109937         2.920842         2.383968
 H         3.261303         1.823117         1.013421
 H        -0.134358        -1.738943         0.772332
 H        -0.293086        -1.011360        -0.676400
 H         1.324138        -1.792141        -0.135180
 H         1.956629        -0.030485         3.849934
