19
Iteration:  3060
 C        -1.152902         0.758231         2.236460
 C         0.242769         0.919808         1.718451
 C         0.905219         2.298227         1.459497
 C         2.204936         1.365289         1.266976
 O         1.923679         0.724458        -0.018515
 C         0.880138        -0.052117         0.710824
 C         0.128740        -1.241884         0.109031
 C         1.527119         0.246103         2.044083
 O         2.120472        -0.438389         3.163141
 H        -1.253500         1.488386         3.137537
 H        -2.011561         0.929037         1.514196
 H        -1.373517        -0.247554         2.640948
 H         0.729683         3.107812         0.670213
 H         0.971587         2.926758         2.417916
 H         3.189417         1.794174         1.436602
 H        -0.386015        -1.849409         0.965329
 H        -0.704639        -0.915041        -0.668202
 H         0.826754        -1.971513        -0.401993
 H         3.034684        -0.125126         3.143319
