19
Iteration:  2236charge 0 multiplicity 1
 C        -1.211304         0.761293         2.251381
 C         0.274268         0.958123         1.834316
 C         0.888667         2.349332         1.586341
 C         2.178598         1.414155         1.131260
 O         1.819740         0.709044        -0.105348
 C         0.858032        -0.003441         0.807281
 C         0.217439        -1.224684         0.111877
 C         1.629661         0.253437         2.060791
 O         2.221364        -0.593107         3.082765
 H        -1.745365         1.696976         2.319343
 H        -1.684523         0.325486         1.360695
 H        -1.433938         0.135392         3.149824
 H         0.461742         2.869441         0.695649
 H         0.964164         2.994595         2.483472
 H         3.130614         1.917173         1.227836
 H        -0.696222        -1.763495         0.547675
 H         0.041251        -0.732818        -0.922293
 H         0.955382        -1.965982        -0.082279
 H         1.894388        -0.195382         3.894963
