19
Iteration:  4009charge 0 multiplicity 1
 C        -1.218523         0.750947         2.282850
 C         0.239434         0.971571         1.824424
 C         0.906665         2.301140         1.484217
 C         2.147349         1.519254         1.186028
 O         1.916102         0.774122        -0.035767
 C         0.943181        -0.043993         0.732967
 C         0.211931        -1.248683         0.178237
 C         1.640298         0.235712         2.033248
 O         2.106707        -0.623920         2.992812
 H        -1.580379         1.609501         2.834706
 H        -2.039750         0.529371         1.449044
 H        -1.393345        -0.204351         2.973598
 H         0.580349         3.005291         0.758364
 H         0.992863         2.943634         2.398625
 H         3.127319         2.026946         1.072545
 H        -0.293976        -1.729886         1.052984
 H        -0.627347        -1.005692        -0.623572
 H         1.014908        -1.951442        -0.083569
 H         1.980502        -0.220551         3.895711
