19
Iteration:  1445
 C        -1.135701         0.643827         2.372088
 C         0.201213         0.983523         1.634154
 C         0.922117         2.245811         1.489463
 C         2.269337         1.436228         1.277510
 O         1.907411         0.782453        -0.032433
 C         0.936403         0.046217         0.666818
 C         0.246371        -1.262579         0.134896
 C         1.539695         0.306081         2.021493
 O         1.997979        -0.561964         3.049504
 H        -2.039129         0.669537         1.754373
 H        -1.193288        -0.262304         2.998588
 H        -1.378021         1.558711         2.993276
 H         0.431308         2.960947         0.899327
 H         1.157059         2.861851         2.404226
 H         3.223630         1.906323         1.298961
 H         0.047662        -1.798796         1.040822
 H        -0.688959        -1.212801        -0.400097
 H         1.076659        -1.812820        -0.504413
 H         1.688021         0.051292         3.786603
