19
Iteration:  1607
 C        -1.136579         0.708972         2.345120
 C         0.214625         0.987773         1.805994
 C         0.966388         2.332152         1.467959
 C         2.196178         1.517315         1.156526
 O         1.833453         0.788566        -0.110898
 C         0.944896         0.026722         0.733399
 C         0.499907        -1.327895         0.290623
 C         1.516658         0.292989         2.041126
 O         1.824174        -0.651034         2.967569
 H        -1.266980         1.442034         3.106413
 H        -1.937264         0.753191         1.593091
 H        -0.975140        -0.284083         2.806212
 H         0.451485         2.865991         0.638907
 H         1.035101         3.062229         2.302799
 H         3.200232         2.016120         1.138583
 H         0.149771        -1.972513         1.101476
 H        -0.295059        -1.370154        -0.405372
 H         1.423199        -1.765014        -0.203683
 H         1.819416        -0.164431         3.827909
