19
Iteration:  4790charge 0 multiplicity 1
 C        -1.113176         0.709357         2.346102
 C         0.222425         0.932393         1.785967
 C         0.909740         2.309488         1.559242
 C         2.175595         1.520514         1.147710
 O         1.926706         0.740557        -0.015939
 C         0.912206        -0.107782         0.690036
 C         0.260072        -1.365425         0.090216
 C         1.517764         0.320638         2.020726
 O         1.981719        -0.416845         3.085124
 H        -1.180943         1.258099         3.328017
 H        -1.871101         1.124442         1.599577
 H        -1.359640        -0.371571         2.418373
 H         0.396664         3.153664         0.990115
 H         1.140207         2.814868         2.491669
 H         3.226984         1.771059         1.334168
 H        -0.688834        -1.095663        -0.432540
 H         0.889484        -1.794910        -0.572089
 H        -0.050390        -2.051372         0.992681
 H         2.904057        -0.572792         2.775186
