19
Iteration:  4129charge 0 multiplicity 1
 C        -1.043103         0.703511         2.505601
 C         0.211744         0.978472         1.707182
 C         0.938300         2.299861         1.430509
 C         2.226981         1.483690         1.243695
 O         1.878430         0.702804        -0.095408
 C         0.893838        -0.052016         0.654042
 C         0.353136        -1.274139         0.131245
 C         1.518642         0.271258         2.039088
 O         1.935318        -0.463438         3.020606
 H        -0.935640         0.910776         3.538251
 H        -1.993944         1.185146         2.267791
 H        -1.331181        -0.383212         2.533473
 H         0.683824         3.039156         0.630448
 H         0.960149         2.917025         2.447011
 H         3.210270         2.010937         1.309500
 H        -0.279531        -1.830999         0.853871
 H        -0.387465        -1.039745        -0.711310
 H         1.082784        -1.930238        -0.282738
 H         1.339180        -0.393928         3.774076
