19
Iteration:  2209charge 0 multiplicity 1
 C        -1.167558         0.740251         2.426682
 C         0.181711         0.898780         1.681470
 C         1.009213         2.309703         1.519181
 C         2.201525         1.418300         1.234748
 O         1.823408         0.780703        -0.070899
 C         0.921769        -0.029548         0.669263
 C         0.300113        -1.263703         0.139320
 C         1.515054         0.354721         2.088034
 O         2.053323        -0.550534         2.951202
 H        -1.705331         1.740181         2.543292
 H        -1.750158         0.068202         1.764649
 H        -1.116401         0.359919         3.454895
 H         0.793540         3.020143         0.717066
 H         1.027997         2.572371         2.570304
 H         3.221220         1.842247         1.463157
 H        -0.268464        -1.705590         0.901486
 H        -0.131982        -1.076772        -0.810886
 H         0.999701        -2.143285         0.046307
 H         1.919529        -0.259414         3.858663
