19
Iteration:  1212charge 0 multiplicity 1
 C        -1.024388         0.776414         2.438393
 C         0.342174         0.999785         1.771085
 C         0.941948         2.339680         1.618679
 C         2.214454         1.456123         1.141852
 O         1.769599         0.832973        -0.093021
 C         0.864461         0.025440         0.653402
 C         0.440800        -1.260525         0.065299
 C         1.559537         0.231235         2.000959
 O         1.807392        -0.737047         3.049248
 H        -1.097977         1.058193         3.485795
 H        -1.732740         1.441203         1.942956
 H        -1.333890        -0.259732         2.310379
 H         0.637864         3.068232         0.887476
 H         0.889756         2.822022         2.643773
 H         3.220918         2.010852         1.127124
 H         0.449938        -2.072621         0.923325
 H        -0.495858        -1.238126        -0.580772
 H         1.249969        -1.599609        -0.528989
 H         1.465313        -0.345600         3.915258
