19
Iteration:  3398charge 0 multiplicity 1
 C        -1.116280         0.710921         2.215257
 C         0.261170         1.008122         1.777142
 C         0.846006         2.341243         1.428585
 C         2.124221         1.497476         1.188932
 O         1.789637         0.720874         0.020733
 C         0.904000        -0.032139         0.807750
 C         0.326303        -1.220535         0.161703
 C         1.592503         0.260183         2.028138
 O         2.119532        -0.569728         3.135299
 H        -1.136370         1.299495         3.238842
 H        -1.796045         1.254537         1.542180
 H        -1.500024        -0.321812         2.326907
 H         0.621864         2.979060         0.472280
 H         1.174745         3.059560         2.364415
 H         3.125956         1.925821         1.194899
 H        -0.513897        -1.654979         0.684081
 H        -0.020014        -1.009566        -0.914126
 H         1.044506        -2.044206         0.122138
 H         1.758881        -1.445274         2.902207
