19
Iteration:  1470
 C        -1.091424         0.608490         2.258699
 C         0.303528         0.948546         1.748277
 C         0.864942         2.348045         1.540006
 C         2.181470         1.414624         1.145986
 O         1.835807         0.750718        -0.044013
 C         1.034024        -0.095849         0.778719
 C         0.203546        -1.161115         0.084566
 C         1.579705         0.260174         2.082763
 O         2.045896        -0.530141         3.139513
 H        -1.745765         1.219491         1.544940
 H        -1.495688        -0.406782         2.290262
 H        -1.361239         1.116382         3.168110
 H         0.459345         2.940120         0.663475
 H         0.969522         3.095399         2.308859
 H         3.087117         1.978796         1.050421
 H        -0.404434        -1.708775         0.790277
 H        -0.562456        -0.656569        -0.632660
 H         0.863286        -1.810523        -0.546442
 H         1.743038         0.060921         3.881945
