19
Iteration:    84charge 0 multiplicity 1
 C        -1.175050         0.789269         2.471934
 C         0.149677         0.998591         1.668633
 C         0.925906         2.328341         1.389947
 C         2.144900         1.427231         1.303267
 O         1.921142         0.698422        -0.067296
 C         0.971571         0.052584         0.616114
 C         0.425960        -1.318002         0.280889
 C         1.485252         0.204398         1.954041
 O         1.961403        -0.520689         2.998245
 H        -0.962700         1.207264         3.532286
 H        -2.149359         1.177210         1.960374
 H        -1.328995        -0.314594         2.572866
 H         0.761865         2.838356         0.366711
 H         1.016996         3.013584         2.268027
 H         3.119319         1.823423         1.401835
 H         0.164875        -1.776827         1.269360
 H        -0.549073        -1.465570        -0.440372
 H         1.302534        -1.958347        -0.095463
 H         1.922417         0.063459         3.749647
