19
Iteration:    31charge 0 multiplicity 1
 C        -1.095637         0.833846         2.406091
 C         0.273973         0.921737         1.787037
 C         0.898846         2.408696         1.411738
 C         2.183078         1.562103         0.965462
 O         1.763256         0.790644        -0.078094
 C         0.971191        -0.032089         0.745671
 C         0.599737        -1.374768         0.241234
 C         1.597732         0.199021         2.049815
 O         1.753481        -0.682017         3.143341
 H        -1.126812         1.438546         3.258693
 H        -1.727407         1.476270         1.746293
 H        -1.554022        -0.070518         2.472631
 H         0.373687         2.847420         0.594375
 H         0.980723         2.847142         2.347966
 H         3.204998         1.831190         0.843086
 H         0.205637        -1.916318         0.968496
 H        -0.293857        -1.146705        -0.478159
 H         1.393671        -1.907728        -0.306399
 H         1.681453        -0.124969         3.933350
