19
Iteration:  1783charge 0 multiplicity 1
 C        -1.154601         0.776396         2.508341
 C         0.216155         1.000088         1.722084
 C         0.935101         2.388072         1.413387
 C         2.242918         1.549495         1.148704
 O         1.802643         0.746979        -0.084799
 C         0.908737        -0.032954         0.758209
 C         0.521346        -1.381500         0.185264
 C         1.576724         0.330414         2.029144
 O         1.809493        -0.675158         3.033561
 H        -1.014781         0.461764         3.493389
 H        -1.692639         1.714894         2.295765
 H        -1.795424         0.036837         1.905735
 H         0.686880         2.799137         0.494652
 H         0.790206         3.001931         2.310291
 H         3.193583         1.920116         0.831103
 H         0.251303        -2.082700         0.885726
 H         0.004354        -1.259248        -0.668278
 H         1.556325        -1.827269        -0.147898
 H         1.819117        -0.235133         3.945103
