19
Iteration:  3648
 C        -1.231934         0.704349         2.275841
 C         0.143410         0.994145         1.663638
 C         0.887926         2.278010         1.547969
 C         2.184091         1.457490         1.207143
 O         1.863057         0.701950        -0.075494
 C         0.966919        -0.010634         0.695851
 C         0.250540        -1.222077         0.159314
 C         1.582815         0.215471         2.033527
 O         2.219021        -0.458709         3.139684
 H        -1.300982         1.251841         3.231645
 H        -1.952432         1.193558         1.604674
 H        -1.282481        -0.448453         2.403989
 H         0.550878         3.148624         0.828073
 H         0.957655         2.633701         2.583286
 H         3.237049         1.573030         1.185733
 H        -0.405336        -1.420739         0.998587
 H        -0.280159        -0.879182        -0.814997
 H         0.872033        -2.131702        -0.049843
 H         1.455673        -0.570157         3.709162
