19
Iteration:  1833charge 0 multiplicity 1
 C        -1.239527         0.797639         2.252015
 C         0.166263         0.902632         1.668121
 C         0.926513         2.275871         1.479488
 C         2.200808         1.529375         1.302763
 O         1.864156         0.755179        -0.042627
 C         0.920757        -0.079688         0.769511
 C         0.282758        -1.352902         0.135796
 C         1.593822         0.342378         2.030998
 O         2.137357        -0.545871         3.035347
 H        -1.026609         0.923978         3.388850
 H        -1.932226         1.549915         1.857540
 H        -1.610307        -0.199501         2.205680
 H         0.548368         3.099408         0.747002
 H         1.042779         2.593319         2.531844
 H         3.171367         2.018469         1.429725
 H        -0.205874        -1.862191         1.056448
 H        -0.511706        -0.999393        -0.683857
 H         0.911365        -2.114638        -0.242884
 H         1.937717        -0.102948         3.864173
