19
Iteration:  4810charge 0 multiplicity 1
 C        -1.199222         0.657622         2.254274
 C         0.208147         0.926967         1.704221
 C         0.936505         2.221943         1.517657
 C         2.168463         1.431649         1.237241
 O         1.834536         0.762151        -0.099819
 C         0.962459        -0.023863         0.670292
 C         0.212321        -1.162376         0.181267
 C         1.650620         0.237979         2.007398
 O         2.048024        -0.416812         3.203381
 H        -1.240847         1.180238         3.217288
 H        -2.050453         0.850968         1.561088
 H        -1.281871        -0.463004         2.544291
 H         0.587020         2.929966         0.708345
 H         0.858052         2.733489         2.536459
 H         3.147916         1.792360         1.088537
 H        -0.716535        -0.800749        -0.219959
 H         0.839017        -1.618118        -0.487605
 H        -0.011285        -1.882853         1.002546
 H         3.034633        -0.481063         3.234606
