19
Iteration:  2983charge 0 multiplicity 1
 C        -1.096713         0.669874         2.433566
 C         0.254824         0.896330         1.699812
 C         1.002101         2.266290         1.412871
 C         2.208741         1.399779         1.167335
 O         1.827468         0.818326        -0.100825
 C         0.943562        -0.093100         0.708047
 C         0.282183        -1.222674         0.136779
 C         1.554200         0.317793         2.073627
 O         1.960408        -0.402055         3.193066
 H        -1.378154         1.636507         2.988110
 H        -1.911195         0.654818         1.646317
 H        -1.284998        -0.235629         3.023265
 H         0.554133         3.015098         0.560614
 H         1.070338         2.925983         2.379429
 H         3.228751         1.654768         1.385061
 H        -0.553223        -1.691394         0.793405
 H        -0.327595        -0.814449        -0.808302
 H         0.932826        -2.057932        -0.237767
 H         1.840054        -1.309587         2.923940
