19
Iteration:    99charge 0 multiplicity 1
 C        -1.110958         0.756610         2.346351
 C         0.160309         0.979498         1.665723
 C         0.883551         2.303545         1.412827
 C         2.216203         1.471565         1.219999
 O         1.925331         0.761458        -0.081548
 C         0.916077        -0.108018         0.763565
 C         0.313606        -1.351258         0.235848
 C         1.494695         0.369093         2.049519
 O         2.017528        -0.546413         3.044879
 H        -1.154400         1.264430         3.264246
 H        -1.950935         1.157704         1.827166
 H        -1.292663        -0.275075         2.500349
 H         0.578944         2.845431         0.562022
 H         0.870767         2.851747         2.343563
 H         3.252625         1.886754         1.319032
 H        -0.239388        -1.802705         1.017838
 H        -0.357907        -1.035819        -0.567542
 H         1.043073        -2.026579        -0.188810
 H         2.242600        -0.118811         3.886077
