19
Iteration:   486charge 0 multiplicity 1
 C        -1.246395         0.844218         2.329366
 C         0.156580         0.957378         1.695361
 C         0.907160         2.305229         1.531283
 C         2.123510         1.442547         1.180005
 O         1.898358         0.739656        -0.075653
 C         0.934801         0.012519         0.704339
 C         0.375339        -1.336844         0.285193
 C         1.550176         0.291792         1.999362
 O         2.105126        -0.597284         2.987863
 H        -1.164057         1.494668         3.200545
 H        -2.103044         1.146420         1.784164
 H        -1.374911        -0.178830         2.635792
 H         0.540060         2.917657         0.699232
 H         1.158253         2.910715         2.388188
 H         3.113236         1.845551         1.290283
 H         0.146404        -1.910659         1.107263
 H        -0.430130        -1.285316        -0.363588
 H         1.217593        -1.932677        -0.150449
 H         1.788649        -0.248511         3.813675
