19
Iteration:  2122charge 0 multiplicity 1
 C        -1.076172         0.735189         2.384142
 C         0.266495         0.978050         1.793948
 C         0.935273         2.331511         1.569999
 C         2.207906         1.405385         1.189250
 O         1.878847         0.827634        -0.106508
 C         0.866842        -0.024912         0.645166
 C         0.270329        -1.289029         0.074976
 C         1.490353         0.261649         2.010486
 O         1.985813        -0.565657         3.073860
 H        -2.046043         1.115598         1.847071
 H        -1.345307        -0.347969         2.549715
 H        -0.955981         1.267816         3.355209
 H         0.500136         2.830828         0.675490
 H         1.044877         2.919215         2.541722
 H         3.324851         1.832331         1.352117
 H         0.102552        -2.061573         0.925629
 H        -0.534212        -1.170514        -0.606052
 H         1.217718        -1.793300        -0.459838
 H         1.882205        -0.313985         4.027271
