19
Iteration:  4098
 C        -1.179068         0.836559         2.373324
 C         0.226132         0.934240         1.740553
 C         0.854693         2.331006         1.442842
 C         2.209889         1.502600         1.265438
 O         1.861059         0.717942        -0.094624
 C         0.915678        -0.015484         0.718992
 C         0.341348        -1.282776         0.158495
 C         1.551321         0.218648         2.028309
 O         2.087495        -0.587446         3.032661
 H        -1.018552         0.959431         3.410790
 H        -1.967724         1.501113         1.990440
 H        -1.564156        -0.220967         2.267976
 H         0.600306         2.883549         0.539182
 H         0.837873         2.944381         2.341685
 H         3.135282         2.120845         1.291023
 H        -0.043885        -1.953294         0.988056
 H        -0.592411        -1.111258        -0.498698
 H         1.038717        -1.936380        -0.343020
 H         1.922636        -0.334650         3.971427
