19
Iteration:  3755charge 0 multiplicity 1
 C        -1.127548         0.720455         2.467741
 C         0.177777         0.964895         1.756394
 C         0.995082         2.288649         1.428315
 C         2.206108         1.428240         1.230597
 O         1.846777         0.822896        -0.070867
 C         0.954206         0.008616         0.694455
 C         0.349191        -1.303863         0.080204
 C         1.495687         0.288911         2.026297
 O         1.983561        -0.539307         3.032208
 H        -1.516647         1.384136         3.166143
 H        -2.048209         0.526589         1.778992
 H        -1.129897        -0.241521         3.016267
 H         0.689783         2.981703         0.640534
 H         1.075318         2.831537         2.397901
 H         3.193578         1.826681         1.095697
 H        -0.207563        -1.696438         0.960322
 H        -0.365456        -1.342054        -0.723756
 H         1.194551        -2.006394        -0.157029
 H         1.783964        -0.305713         3.937606
