19
Iteration:  4556
 C        -1.139038         0.685881         2.436841
 C         0.223517         1.003321         1.765375
 C         0.889864         2.358209         1.523433
 C         2.199867         1.548136         1.050037
 O         1.763041         0.776779        -0.056103
 C         0.940202        -0.072142         0.733134
 C         0.395094        -1.359249         0.082589
 C         1.685706         0.285438         2.060364
 O         1.964070        -0.579156         3.059041
 H        -1.101655         1.059418         3.486344
 H        -1.909574         1.239886         1.970563
 H        -1.572719        -0.353659         2.434259
 H         0.352550         3.039801         0.864205
 H         1.051950         2.967521         2.491931
 H         3.092674         2.120366         0.882613
 H         0.291904        -1.305423        -1.013046
 H         1.258398        -2.121913         0.323299
 H        -0.469060        -1.772183         0.538562
 H         1.589104        -0.190499         3.857684
