19
Iteration:  3012charge 0 multiplicity 1
 C        -1.157511         0.695239         2.231743
 C         0.319945         0.929785         1.757548
 C         0.929990         2.295434         1.538520
 C         2.172896         1.483898         1.071062
 O         1.898609         0.653787        -0.018612
 C         0.865843        -0.045795         0.782128
 C         0.107555        -1.161601         0.065368
 C         1.646607         0.272226         2.082631
 O         2.075657        -0.435782         3.259055
 H        -1.685667         1.594108         2.654916
 H        -1.710430         0.398018         1.372185
 H        -1.354594        -0.196751         2.883494
 H         0.423241         2.790014         0.784619
 H         0.987219         2.989162         2.301875
 H         3.122336         1.943679         1.051186
 H        -0.641303        -1.608649         0.656284
 H        -0.301207        -0.718459        -0.842331
 H         0.818311        -1.931686        -0.219042
 H         2.695158        -1.133119         2.886216
