19
Iteration:  4325
 C        -1.125772         0.796823         2.439012
 C         0.220080         1.015879         1.790596
 C         0.884288         2.307811         1.441356
 C         2.225412         1.533839         1.175400
 O         1.890869         0.755236        -0.085152
 C         0.991484        -0.074464         0.690145
 C         0.402482        -1.325355         0.166569
 C         1.525553         0.302233         2.040043
 O         1.910045        -0.595407         3.004963
 H        -1.125381         1.112909         3.555567
 H        -1.978696         1.350078         1.981826
 H        -1.431711        -0.332752         2.407811
 H         0.538126         2.858073         0.558239
 H         0.893903         2.925073         2.387802
 H         3.294657         1.795437         1.213886
 H         0.349157        -2.123485         0.964204
 H        -0.723118        -1.303509        -0.162525
 H         0.942705        -1.787047        -0.711893
 H         1.506667        -0.488634         3.872521
