19
Iteration:   331charge 0 multiplicity 1
 C        -1.220218         0.799767         2.156868
 C         0.197553         1.001544         1.981395
 C         0.864304         2.276570         1.460564
 C         2.095951         1.463814         1.130084
 O         1.833352         0.687136        -0.056146
 C         0.996406        -0.132776         0.787381
 C         0.288152        -1.239673         0.170326
 C         1.623945         0.268304         2.072965
 O         2.177120        -0.433078         3.119840
 H        -1.711167         1.280925         2.987961
 H        -1.692983         1.201610         1.246625
 H        -1.297020        -0.344602         2.208333
 H         0.385177         2.807614         0.682478
 H         1.030137         3.065574         2.226943
 H         3.191268         1.961616         1.141879
 H        -0.519227        -1.704246         0.885258
 H        -0.184738        -0.892414        -0.686502
 H         0.970439        -2.037536        -0.195629
 H         2.073951        -1.407514         3.090021
