19
Iteration:  2205charge 0 multiplicity 1
 C        -1.148508         0.729914         2.447708
 C         0.148224         0.903131         1.683428
 C         0.999603         2.304759         1.531454
 C         2.220554         1.411292         1.234610
 O         1.858277         0.807697        -0.105448
 C         0.899930        -0.026964         0.647294
 C         0.327427        -1.287552         0.187255
 C         1.526576         0.354824         2.068665
 O         2.015291        -0.556689         2.957398
 H        -1.639922         1.761953         2.517013
 H        -1.751547         0.078665         1.846337
 H        -1.120369         0.381654         3.487536
 H         0.753561         2.986727         0.672641
 H         0.948816         2.707499         2.581032
 H         3.248121         1.781023         1.459672
 H        -0.390101        -1.785026         0.922045
 H        -0.186909        -0.969428        -0.882653
 H         1.051233        -2.098815        -0.051238
 H         1.984249        -0.291117         3.909528
