19
Iteration:  2326
 C        -1.074142         0.746045         2.411407
 C         0.229284         1.010702         1.757006
 C         0.953168         2.321354         1.430816
 C         2.214658         1.456162         1.204937
 O         1.768575         0.741195        -0.114730
 C         0.939626        -0.011926         0.729297
 C         0.375757        -1.323583         0.119198
 C         1.606421         0.377275         2.091175
 O         1.879338        -0.605487         3.061788
 H        -0.995573         0.664383         3.603791
 H        -1.803514         1.494180         2.197217
 H        -1.402206        -0.265375         2.189177
 H         0.486524         2.814588         0.504033
 H         1.213747         2.921499         2.351125
 H         3.357719         1.864655         1.123191
 H         0.298478        -2.053778         0.916384
 H        -0.556803        -1.102308        -0.590500
 H         0.995493        -1.919135        -0.613080
 H         1.656306        -0.259223         3.945061
