19
Iteration:   453
 C        -1.047150         0.713601         2.454525
 C         0.192601         0.986055         1.706350
 C         0.908910         2.378064         1.370669
 C         2.127712         1.484516         1.178967
 O         1.904016         0.779527        -0.027860
 C         0.961085         0.018336         0.693661
 C         0.369705        -1.347212         0.215788
 C         1.579956         0.284184         2.070975
 O         1.881646        -0.620951         2.986298
 H        -1.197394         1.661094         2.988490
 H        -1.950996         0.453339         1.968825
 H        -0.899750         0.020971         3.295004
 H         0.561343         2.829349         0.441088
 H         1.100057         3.119442         2.118600
 H         3.141683         1.916117         1.147729
 H         0.072889        -1.842922         1.063348
 H        -0.438062        -1.379269        -0.430777
 H         1.174614        -1.943566        -0.276134
 H         1.309936        -0.341134         3.759985
