19
Iteration:  4088
 C        -1.159547         0.817767         2.316495
 C         0.186395         0.956040         1.791655
 C         0.893200         2.222119         1.476657
 C         2.163377         1.555539         1.279432
 O         1.771370         0.675308        -0.063757
 C         0.964956        -0.013166         0.733939
 C         0.371973        -1.263290         0.215710
 C         1.588626         0.252939         2.013805
 O         2.082958        -0.607010         2.982570
 H        -1.369221         1.161901         3.348071
 H        -1.534367         1.623617         1.646068
 H        -1.588792        -0.193233         2.032196
 H         0.508019         2.792145         0.641263
 H         0.923203         2.837997         2.315732
 H         3.216846         1.904526         1.171463
 H        -0.038994        -1.827812         1.104653
 H        -0.428119        -0.784395        -0.454182
 H         1.052488        -1.728234        -0.492688
 H         2.042347         0.015930         3.762936
