19
Iteration:  4533
 C        -1.054890         0.746066         2.384666
 C         0.246180         0.936678         1.796458
 C         0.895845         2.293783         1.483286
 C         2.134059         1.434704         1.179244
 O         1.740918         0.868593        -0.127571
 C         0.945705        -0.046590         0.645972
 C         0.467228        -1.323182         0.233886
 C         1.577009         0.292568         2.035504
 O         1.901546        -0.598235         3.040113
 H        -0.972010         1.104146         3.437047
 H        -1.751058         1.344544         1.821441
 H        -1.520778        -0.293170         2.345419
 H         0.377465         2.973062         0.811044
 H         0.814135         2.833494         2.514401
 H         3.061908         1.964931         1.157760
 H        -0.036990        -1.208150        -0.751019
 H         1.430138        -2.010759         0.077483
 H        -0.100026        -1.808190         0.964690
 H         2.434705         0.005949         3.615158
