19
Iteration:  4513
 C        -1.227549         0.760142         2.404581
 C         0.071928         0.963574         1.702431
 C         0.888204         2.307740         1.522554
 C         2.220830         1.542604         1.157100
 O         1.880182         0.783839        -0.069422
 C         0.840555         0.012350         0.670598
 C         0.465253        -1.329110         0.254027
 C         1.581643         0.272124         2.020002
 O         2.006943        -0.625717         3.002048
 H        -1.038642         1.057552         3.434296
 H        -2.058476         1.133873         1.912029
 H        -1.378565        -0.350207         2.368730
 H         0.622398         2.954446         0.717507
 H         0.962398         2.945322         2.455305
 H         3.279085         1.767500         1.210457
 H        -0.403602        -1.210177        -0.417522
 H         1.323955        -1.920429        -0.305271
 H         0.248215        -1.873744         1.167412
 H         2.709294        -0.145065         3.462011
