19
Iteration:  4156charge 0 multiplicity 1
 C        -0.951889         0.639267         2.485462
 C         0.296002         0.956015         1.745068
 C         0.930560         2.293460         1.458645
 C         2.237037         1.463030         1.062266
 O         1.818129         0.800597        -0.146667
 C         0.861754        -0.033828         0.684556
 C         0.334955        -1.292749         0.074439
 C         1.572196         0.261694         2.071111
 O         1.837825        -0.486037         3.199979
 H        -1.133675         1.147867         3.472691
 H        -1.865030         1.022570         1.963864
 H        -1.095678        -0.415119         2.651059
 H         0.515256         3.087103         0.855941
 H         1.198071         2.704006         2.369208
 H         3.189197         1.979729         1.099500
 H        -0.507452        -1.685993         0.663525
 H        -0.117736        -0.948725        -0.860907
 H         1.119671        -2.054878        -0.289054
 H         1.392781        -0.070649         3.947828
