19
Iteration:  3610charge 0 multiplicity 1
 C        -1.256894         0.883952         2.213780
 C         0.204573         0.988003         1.771795
 C         0.850375         2.272058         1.507569
 C         2.198866         1.432769         1.233504
 O         1.820718         0.780285        -0.064521
 C         0.841511        -0.033422         0.761653
 C         0.387815        -1.348097         0.195299
 C         1.656422         0.273060         2.060353
 O         2.184566        -0.584973         3.032656
 H        -1.481285         0.883523         3.251709
 H        -1.835936         1.707011         1.763251
 H        -1.788199         0.092321         1.799408
 H         0.408545         2.873509         0.694769
 H         1.018879         2.910306         2.453799
 H         3.149734         2.011031         1.140595
 H         0.143359        -2.058929         1.012022
 H        -0.508285        -1.360794        -0.295659
 H         1.189347        -1.841330        -0.328504
 H         1.596200        -0.719838         3.799068
