19
Iteration:   858
 C        -1.096132         0.669392         2.610888
 C         0.164288         0.984287         1.688750
 C         1.002611         2.285926         1.563730
 C         2.170529         1.500459         1.243547
 O         1.922318         0.739656        -0.101736
 C         0.945472         0.019332         0.586500
 C         0.316960        -1.334336         0.076403
 C         1.513303         0.368482         1.965260
 O         1.868480        -0.549991         2.998678
 H        -1.877782         0.403399         1.811527
 H        -1.018968        -0.171686         3.365400
 H        -1.499459         1.614192         3.121216
 H         0.918193         3.140810         0.854563
 H         1.134747         2.723596         2.529298
 H         3.256883         1.777548         1.286347
 H        -0.121186        -1.919672         0.787109
 H        -0.426773        -1.056901        -0.686343
 H         1.156763        -2.011158        -0.409692
 H         2.173485        -0.214201         3.866865
