19
Iteration:  2704charge 0 multiplicity 1
 C        -1.165581         0.808943         2.351699
 C         0.224383         0.992805         1.690131
 C         0.955839         2.246757         1.545806
 C         2.202003         1.462909         1.197805
 O         1.773857         0.758565        -0.069646
 C         0.957351        -0.031871         0.696417
 C         0.301323        -1.198142         0.103221
 C         1.586285         0.265338         2.060676
 O         2.079662        -0.586223         3.077782
 H        -2.016332         0.830013         1.693658
 H        -1.147099        -0.240786         2.860821
 H        -1.345038         1.509985         3.225125
 H         0.644785         2.858414         0.635191
 H         1.168810         2.870751         2.500122
 H         3.153376         1.838117         1.359199
 H        -0.342449        -1.715493         0.941161
 H        -0.231203        -0.751145        -0.786427
 H         0.937462        -2.124668        -0.023220
 H         1.346867        -1.148167         3.420002
