19
Iteration:  1430
 C        -1.107036         0.727302         2.399226
 C         0.188601         0.981889         1.739408
 C         0.919024         2.402509         1.551682
 C         2.161683         1.418550         1.192611
 O         1.966037         0.782470        -0.062393
 C         0.860238         0.006302         0.639130
 C         0.391182        -1.294163         0.166199
 C         1.480624         0.238144         1.984840
 O         1.936158        -0.586943         3.011058
 H        -1.890705         0.332631         1.729973
 H        -0.852615        -0.027928         3.157085
 H        -1.552157         1.601041         2.894366
 H         0.813026         3.084372         0.659165
 H         0.880382         2.896804         2.508131
 H         3.281834         1.718384         1.288765
 H         0.298292        -1.970679         1.085982
 H        -0.529405        -1.161585        -0.402905
 H         1.067928        -1.779889        -0.403819
 H         1.873357        -0.345271         3.927114
