19
Iteration:  3569
 C        -1.170466         0.816477         2.279417
 C         0.230826         0.986533         1.807086
 C         0.891129         2.286722         1.522900
 C         2.212523         1.512289         1.217528
 O         1.862462         0.743363        -0.040164
 C         0.886438         0.006854         0.754074
 C         0.383054        -1.410576         0.216259
 C         1.610690         0.364376         1.997957
 O         1.923837        -0.602830         2.973729
 H        -1.205762         0.721132         3.341364
 H        -1.993316         1.591395         1.861568
 H        -1.447208        -0.242408         1.862552
 H         0.568592         2.910905         0.570381
 H         0.917076         2.985942         2.463640
 H         3.180221         2.032598         1.265362
 H         0.523309        -2.194326         1.087364
 H        -0.636701        -1.557019        -0.259900
 H         1.054459        -1.780336        -0.619885
 H         2.482951        -0.225839         3.655842
