19
Iteration:  2155charge 0 multiplicity 1
 C        -1.069347         0.730211         2.478681
 C         0.214972         0.987015         1.747309
 C         0.944159         2.339449         1.462255
 C         2.253601         1.476840         1.053507
 O         1.800170         0.807630        -0.105134
 C         0.986328        -0.044841         0.823348
 C         0.419394        -1.273664         0.156159
 C         1.617701         0.314059         2.067138
 O         1.768033        -0.693224         2.976380
 H        -1.875439         1.542025         2.467771
 H        -1.516068        -0.299839         2.384023
 H        -0.688984         0.668057         3.527027
 H         0.476710         3.028587         0.718450
 H         0.935924         3.023220         2.351156
 H         3.226392         2.075708         1.256885
 H        -0.064889        -2.067573         0.789524
 H        -0.312175        -1.043289        -0.540413
 H         1.359843        -1.558176        -0.473687
 H         1.519943        -0.311512         3.818070
