19
Iteration:   153
 C        -1.208289         0.627887         2.144089
 C         0.269955         0.930837         1.873779
 C         0.940147         2.281730         1.431703
 C         2.186842         1.389031         1.217734
 O         1.785308         0.736392        -0.026952
 C         0.931731        -0.094061         0.738280
 C         0.135109        -1.196851         0.097034
 C         1.636427         0.297585         2.064064
 O         2.228967        -0.356766         3.182983
 H        -1.587110         1.454778         2.725599
 H        -1.808261         0.594039         1.186173
 H        -1.467420        -0.262785         2.698205
 H         0.525557         2.770686         0.573465
 H         1.197825         2.919515         2.263820
 H         3.289171         1.564442         1.196968
 H        -0.758602        -1.369460         0.696308
 H        -0.212003        -0.898416        -0.961585
 H         0.707944        -2.126427         0.028883
 H         1.752254        -0.308750         4.012442
