19
Iteration:  2611
 C        -1.077427         0.714812         2.310746
 C         0.240650         0.965323         1.752719
 C         0.968094         2.375155         1.484518
 C         2.195986         1.418208         1.213050
 O         1.818258         0.826550        -0.042912
 C         0.918836        -0.006661         0.715878
 C         0.185328        -1.212120         0.143625
 C         1.567737         0.195691         1.992384
 O         2.035722        -0.654875         3.104920
 H        -1.658939         0.294353         1.418064
 H        -1.137645         0.004628         3.099798
 H        -1.584567         1.623128         2.616632
 H         0.543172         3.068591         0.780485
 H         1.066930         2.845068         2.421462
 H         3.354716         1.801269         1.403163
 H        -0.181017        -1.842660         0.875470
 H        -0.576136        -0.898174        -0.559377
 H         0.842594        -1.880521        -0.415694
 H         2.236301         0.069794         3.721774
