19
Iteration:   867
 C        -1.117512         0.645670         2.517352
 C         0.149538         1.052173         1.713498
 C         0.994079         2.360785         1.553696
 C         2.242040         1.470070         1.189524
 O         1.924304         0.762953        -0.004218
 C         0.950653        -0.038073         0.695047
 C         0.256439        -1.280457         0.044251
 C         1.495488         0.237771         1.975102
 O         1.924007        -0.528176         2.948979
 H        -1.912215         0.086989         1.940459
 H        -0.938053        -0.048030         3.410859
 H        -1.533553         1.635815         2.909230
 H         0.575544         3.102942         0.822869
 H         1.074384         2.713123         2.555492
 H         3.240436         1.727812         1.275295
 H        -0.218362        -1.920821         0.804231
 H        -0.444700        -1.261595        -0.779376
 H         1.168471        -1.951383        -0.268355
 H         2.322822         0.028419         3.651903
