19
Iteration:  4940charge 0 multiplicity 1
 C        -1.150502         0.711933         2.486451
 C         0.206532         0.942795         1.784305
 C         0.949626         2.323751         1.537703
 C         2.181235         1.588875         0.958185
 O         1.836075         0.787044        -0.106548
 C         0.902099        -0.006425         0.721402
 C         0.510771        -1.296070         0.155700
 C         1.565389         0.272952         2.027671
 O         1.810136        -0.569631         3.121418
 H        -1.091855         0.935929         3.500753
 H        -1.864957         1.341778         2.112572
 H        -1.472113        -0.356798         2.500686
 H         0.413793         2.956261         0.847440
 H         1.223656         2.776965         2.508292
 H         3.178553         1.874226         0.851818
 H         0.182391        -1.133176        -0.866936
 H         1.463093        -2.093283         0.325280
 H        -0.329513        -1.796571         0.774877
 H         2.522947        -1.187368         2.858174
