19
Iteration:  3282charge 0 multiplicity 1
 C        -1.086822         0.687565         2.371104
 C         0.273684         0.965735         1.774153
 C         0.903598         2.314825         1.391433
 C         2.169813         1.476972         1.121794
 O         1.890765         0.730423        -0.026116
 C         0.918248        -0.027149         0.737528
 C         0.203338        -1.221481         0.014143
 C         1.607153         0.274288         2.077662
 O         2.037453        -0.516450         3.207897
 H        -1.268464         1.297448         3.197271
 H        -1.920118         0.918171         1.569625
 H        -1.190627        -0.335502         2.591740
 H         0.619254         2.947142         0.577114
 H         1.049732         2.848729         2.288091
 H         3.223060         1.842106         1.254500
 H        -0.055470        -1.756654         0.933090
 H        -0.736527        -0.974464        -0.503622
 H         0.932049        -1.847490        -0.612710
 H         1.195559        -0.767861         3.656206
