19
Iteration:  4237
 C        -1.245254         0.767251         2.231880
 C         0.177567         0.937606         1.792824
 C         0.858671         2.304186         1.435165
 C         2.132913         1.499928         1.215371
 O         1.862522         0.747620        -0.084576
 C         1.007460        -0.084695         0.812397
 C         0.210405        -1.198638         0.211229
 C         1.568526         0.277071         2.120817
 O         2.235060        -0.623237         2.977631
 H        -1.460666         1.448528         3.142395
 H        -1.937615         0.889720         1.384189
 H        -1.459356        -0.291909         2.638544
 H         0.687767         2.824312         0.480980
 H         1.029885         2.986331         2.325458
 H         3.171525         1.871478         1.427880
 H        -0.495806        -1.603841         0.957673
 H        -0.232177        -0.667293        -0.660758
 H         1.037727        -1.871468        -0.021352
 H         2.140093        -0.372903         3.904805
