19
Iteration:   575
 C        -1.205404         0.711695         2.357715
 C         0.157596         0.918705         1.580030
 C         0.882114         2.328669         1.451425
 C         2.234895         1.472480         1.236876
 O         1.918289         0.696399         0.013324
 C         1.035264        -0.123111         0.724099
 C         0.155570        -1.242111         0.241631
 C         1.566848         0.292157         1.988073
 O         2.126542        -0.461806         3.020929
 H        -1.072158         0.449804         3.421854
 H        -1.793881         1.599979         2.320968
 H        -1.884257         0.040601         1.908649
 H         0.548294         3.130270         0.745573
 H         0.967588         2.804139         2.412724
 H         3.235638         1.885478         1.285759
 H        -0.465234        -1.603313         0.943822
 H        -0.382700        -0.986678        -0.646106
 H         0.927775        -2.025656        -0.054829
 H         1.848282        -0.112497         3.858010
