19
Iteration:  1510
 C        -1.251400         0.647028         2.247971
 C         0.188193         0.916909         1.771037
 C         0.913862         2.268788         1.455295
 C         2.228175         1.434440         1.222632
 O         1.814240         0.698974        -0.008404
 C         0.930090        -0.091675         0.781325
 C         0.255891        -1.118688         0.043742
 C         1.608192         0.275620         2.045366
 O         2.161113        -0.452115         3.134330
 H        -1.799674         1.571918         2.117835
 H        -1.893603        -0.108491         1.766676
 H        -1.055048         0.493750         3.367393
 H         0.451940         2.926301         0.712222
 H         1.119038         2.968143         2.379395
 H         3.307550         1.630205         1.198794
 H        -0.645954        -1.503026         0.511386
 H        -0.120870        -0.713597        -0.852575
 H         1.047591        -1.920308        -0.310865
 H         2.071645        -0.046873         3.999727
