19
Iteration:   129charge 0 multiplicity 1
 C        -1.169411         0.711513         2.163193
 C         0.265626         0.978591         1.894852
 C         0.891278         2.262723         1.462817
 C         2.172269         1.563595         1.076986
 O         1.782864         0.622554        -0.096150
 C         0.958925        -0.105544         0.827014
 C         0.267251        -1.154359         0.177293
 C         1.598542         0.255708         2.069126
 O         2.136191        -0.528710         3.193455
 H        -1.648425         1.369061         2.981265
 H        -1.746984         0.828849         1.125107
 H        -1.318001        -0.315331         2.436773
 H         0.427024         2.685027         0.523585
 H         1.024200         2.952701         2.302248
 H         3.060962         2.146045         0.927189
 H        -0.566865        -1.405595         0.730799
 H        -0.137588        -0.601940        -0.849842
 H         0.930578        -2.044942        -0.078472
 H         2.023006        -0.029589         4.007426
