19
Iteration:   419charge 0 multiplicity 1
 C        -1.064618         0.599421         2.437140
 C         0.307453         0.970642         1.808716
 C         0.941840         2.291781         1.440155
 C         2.198516         1.473083         1.058691
 O         1.817190         0.748807        -0.084651
 C         0.967589        -0.075664         0.760389
 C         0.368491        -1.252401         0.048970
 C         1.601356         0.362375         2.081143
 O         1.750787        -0.490405         3.121581
 H        -1.419997         1.545820         2.777587
 H        -1.871674         0.184333         1.881055
 H        -0.924229         0.005922         3.358621
 H         0.539280         2.908263         0.651037
 H         1.281270         2.909532         2.282702
 H         3.194786         1.971262         0.811545
 H        -0.200582        -1.813943         0.779154
 H        -0.240974        -0.989689        -0.735453
 H         1.148443        -1.900631        -0.300241
 H         2.108808        -0.144806         3.988305
