19
Iteration:   266charge 0 multiplicity 1
 C        -1.157544         0.800620         2.485240
 C         0.226956         0.931030         1.784619
 C         0.891442         2.359508         1.472908
 C         2.207125         1.438003         1.126221
 O         1.970130         0.736406        -0.097640
 C         0.931906        -0.062114         0.651815
 C         0.396014        -1.436897         0.226089
 C         1.550122         0.366116         1.981894
 O         1.802020        -0.479867         3.004855
 H        -1.120378         0.867981         3.575267
 H        -1.799934         1.519350         1.992241
 H        -1.682612        -0.180365         2.180979
 H         0.609163         3.004153         0.694482
 H         1.059477         2.794435         2.462699
 H         3.269381         1.907008         1.303538
 H         0.171625        -2.077756         1.223527
 H        -0.513472        -1.399529        -0.314000
 H         1.204952        -2.005682        -0.331882
 H         2.448240        -0.046047         3.651330
