19
Iteration:  4428charge 0 multiplicity 1
 C        -1.081096         0.699231         2.195615
 C         0.253292         0.892774         1.792487
 C         0.920529         2.274911         1.643071
 C         2.172487         1.497571         1.217370
 O         1.791826         0.733755        -0.074891
 C         0.895802        -0.090825         0.751910
 C         0.186386        -1.233613         0.128732
 C         1.625027         0.208068         1.934077
 O         2.133240        -0.374445         3.125458
 H        -1.559035         1.330698         2.972063
 H        -1.773359         0.688793         1.205743
 H        -1.185097        -0.318814         2.680381
 H         0.475414         3.008115         0.838334
 H         1.250700         2.768780         2.585652
 H         3.182523         1.994083         1.133754
 H        -0.872623        -1.370451         0.277988
 H         0.392304        -1.178572        -1.005208
 H         0.695621        -2.184759         0.384091
 H         1.489660        -0.220262         3.870700
