19
Iteration:  1701charge 0 multiplicity 1
 C        -1.151415         0.630799         2.176598
 C         0.272181         0.941732         1.726474
 C         0.872099         2.288677         1.483181
 C         2.161258         1.471315         1.178363
 O         1.839706         0.684115        -0.003282
 C         0.895801        -0.103139         0.780324
 C         0.237479        -1.216157         0.061743
 C         1.617470         0.298392         2.101021
 O         2.139932        -0.424576         3.177980
 H        -1.079172         0.421539         3.325158
 H        -1.627396         1.608783         2.219772
 H        -1.673412        -0.126154         1.652687
 H         0.282544         2.836654         0.687996
 H         1.042338         2.981577         2.294898
 H         3.210821         1.822753         1.034655
 H        -0.621879        -1.651430         0.650296
 H        -0.371332        -0.720855        -0.797426
 H         0.966182        -1.850197        -0.265055
 H         1.906153         0.021934         4.023789
