19
Iteration:  3611
 C        -1.251131         0.877872         2.217379
 C         0.207195         0.985310         1.776056
 C         0.849430         2.268825         1.507063
 C         2.198029         1.431528         1.232994
 O         1.828563         0.788742        -0.061496
 C         0.838162        -0.034482         0.766992
 C         0.382250        -1.350800         0.195949
 C         1.654732         0.277327         2.052959
 O         2.183709        -0.579739         3.032787
 H        -1.483864         0.898467         3.223357
 H        -1.831103         1.722114         1.738288
 H        -1.821198         0.091394         1.798278
 H         0.383826         2.895377         0.668568
 H         1.015879         2.914394         2.475412
 H         3.170859         1.962939         1.132309
 H         0.113185        -2.083614         1.007397
 H        -0.501139        -1.373331        -0.316468
 H         1.176364        -1.867086        -0.338636
 H         1.606300        -0.729333         3.787037
