19
Iteration:  1018
 C        -1.067379         0.691959         2.558660
 C         0.221621         0.947031         1.785039
 C         0.960442         2.331919         1.509137
 C         2.215031         1.543735         1.082746
 O         1.845214         0.856150        -0.076547
 C         1.056157        -0.025648         0.710626
 C         0.346791        -1.160793         0.049284
 C         1.601539         0.272553         2.043704
 O         1.758682        -0.774591         3.010708
 H        -0.968001         0.439859         3.604188
 H        -1.816150         1.478622         2.277730
 H        -1.566176        -0.209445         2.100878
 H         0.672210         3.020259         0.581310
 H         0.969628         3.110260         2.303390
 H         3.200125         1.927416         1.155643
 H         0.154764        -1.904959         0.958978
 H        -0.624239        -0.925651        -0.392491
 H         1.048672        -1.835077        -0.613896
 H         1.812395        -0.376916         3.910684
