19
Iteration:    49charge 0 multiplicity 1
 C        -1.045416         0.899542         2.422400
 C         0.219761         1.037235         1.692255
 C         0.925507         2.321203         1.438396
 C         2.164947         1.561566         1.134689
 O         1.762384         0.706961        -0.092241
 C         0.983484        -0.102820         0.765895
 C         0.584908        -1.460711         0.232841
 C         1.561592         0.373751         2.069540
 O         1.747466        -0.638542         2.992248
 H        -0.979984         1.222974         3.543828
 H        -1.959071         1.426046         2.045117
 H        -1.253597        -0.262822         2.449194
 H         0.623651         3.063687         0.603574
 H         1.133742         2.893080         2.421100
 H         3.070733         2.182497         0.966683
 H         0.379069        -2.244171         1.106834
 H        -0.260129        -1.430394        -0.487581
 H         1.509860        -1.771854        -0.302644
 H         1.389878        -0.491782         3.882032
