19
Iteration:   145
 C        -1.209226         0.652332         2.131261
 C         0.261443         0.964342         1.940933
 C         0.908557         2.273898         1.421643
 C         2.154066         1.368476         1.098903
 O         1.790243         0.754600        -0.110566
 C         1.018222        -0.058701         0.793551
 C         0.175877        -1.147599         0.120733
 C         1.588069         0.228356         2.153268
 O         2.214526        -0.411559         3.202035
 H        -1.693226         1.422030         2.650204
 H        -1.793669         0.688266         1.291846
 H        -1.420287        -0.359206         2.574263
 H         0.391222         2.670439         0.585694
 H         1.222087         2.952359         2.243293
 H         3.307982         1.553052         1.084544
 H        -0.793928        -1.415173         0.739086
 H        -0.053152        -0.904338        -0.823712
 H         0.762854        -2.014576        -0.037464
 H         1.799782        -0.210100         4.021885
