19
Iteration:  4002
 C        -1.170982         0.718950         2.286195
 C         0.249213         0.991718         1.784208
 C         0.868783         2.348999         1.459846
 C         2.098387         1.519266         1.176959
 O         1.891338         0.746254        -0.028665
 C         0.976006        -0.009674         0.750723
 C         0.280042        -1.199125         0.177662
 C         1.594992         0.188914         2.003908
 O         2.101102        -0.668825         3.045132
 H        -1.423727         1.657315         2.888822
 H        -2.064199         0.599175         1.691905
 H        -1.294840        -0.045892         3.070684
 H         0.497571         3.031054         0.659373
 H         1.078760         2.878910         2.351802
 H         3.099234         1.970795         1.020401
 H        -0.333740        -1.675972         0.973560
 H        -0.455880        -0.928667        -0.563677
 H         0.889034        -2.003915        -0.203084
 H         1.939907        -0.195884         3.878152
