19
Iteration:   144
 C        -1.210346         0.658241         2.133411
 C         0.261726         0.969311         1.944331
 C         0.905337         2.270216         1.425750
 C         2.153493         1.369648         1.081551
 O         1.790277         0.752397        -0.122644
 C         1.025226        -0.058463         0.801072
 C         0.184652        -1.141242         0.131153
 C         1.576270         0.218363         2.164466
 O         2.214406        -0.421808         3.201954
 H        -1.700918         1.391072         2.662496
 H        -1.778468         0.699525         1.263422
 H        -1.394949        -0.343032         2.562226
 H         0.400026         2.671929         0.611128
 H         1.183436         2.971480         2.218215
 H         3.304501         1.600227         1.080489
 H        -0.772480        -1.424470         0.723109
 H        -0.053442        -0.865803        -0.852279
 H         0.771043        -2.008668        -0.029216
 H         1.780015        -0.171047         4.027542
