19
Iteration:  3191
 C        -1.119856         0.790777         2.280530
 C         0.257547         0.958422         1.814537
 C         0.932482         2.246752         1.505761
 C         2.196655         1.443377         1.102300
 O         1.791186         0.748113        -0.109407
 C         0.961099        -0.040490         0.776946
 C         0.280379        -1.201342         0.124441
 C         1.589987         0.237180         2.053481
 O         1.960480        -0.542243         3.209973
 H        -1.229673         1.628638         3.121457
 H        -2.013547         1.090033         1.620038
 H        -1.309844        -0.275398         2.481205
 H         0.448564         2.703815         0.632610
 H         0.841393         2.956881         2.361455
 H         3.228152         1.780455         1.000775
 H        -0.612384        -1.466488         0.744722
 H        -0.027750        -1.074871        -0.977381
 H         1.075138        -1.982955         0.168659
 H         2.948683        -0.629969         3.059076
