19
Iteration:  2407
 C        -1.095491         0.733173         2.393305
 C         0.141707         1.025682         1.704466
 C         0.971911         2.346676         1.440337
 C         2.223551         1.404980         1.202543
 O         1.858907         0.713615        -0.084733
 C         0.831092         0.070978         0.733732
 C         0.339102        -1.271557         0.142120
 C         1.486635         0.233110         2.065054
 O         2.056905        -0.573508         3.058452
 H        -0.977405         0.913270         3.478304
 H        -2.003966         1.316153         1.992963
 H        -1.340899        -0.339965         2.154363
 H         0.709837         3.031343         0.628883
 H         0.807174         3.002896         2.305641
 H         3.192829         1.615974         1.224241
 H        -0.196718        -1.900491         0.975415
 H        -0.505923        -1.235761        -0.606284
 H         1.303278        -1.802068        -0.129340
 H         2.135631        -0.118598         3.921167
