19
Iteration:  2580
 C        -1.084762         0.679055         2.565755
 C         0.158858         1.024157         1.724399
 C         0.996775         2.305908         1.461594
 C         2.269268         1.453976         1.174212
 O         1.934570         0.710663        -0.054757
 C         0.859955         0.019273         0.718768
 C         0.358136        -1.225845         0.171615
 C         1.526445         0.310597         1.983228
 O         1.852623        -0.591409         2.926487
 H        -1.877051         0.544927         1.778454
 H        -1.068272        -0.311501         2.993185
 H        -1.412549         1.435646         3.242226
 H         0.557860         3.118950         0.854361
 H         1.271567         2.662951         2.468946
 H         3.377849         1.795979         1.223716
 H         0.087424        -1.870423         0.949525
 H        -0.453789        -1.037959        -0.540117
 H         1.081013        -1.569437        -0.531587
 H         1.383013        -0.242316         3.719267
