19
Iteration:  3546charge 0 multiplicity 1
 C        -1.108230         0.659232         2.386799
 C         0.193766         0.977698         1.694988
 C         0.889183         2.379032         1.429762
 C         2.186060         1.400941         1.185366
 O         1.923704         0.807266        -0.059995
 C         0.999064         0.005625         0.684831
 C         0.370307        -1.267673         0.248786
 C         1.472257         0.285659         2.012281
 O         1.890417        -0.613671         3.073000
 H        -1.058609         0.942123         3.406702
 H        -1.935412         1.316356         1.800752
 H        -1.421824        -0.415544         2.309674
 H         0.513681         3.068197         0.553911
 H         1.070909         3.015845         2.415056
 H         3.147427         1.896261         1.338642
 H         0.363311        -2.021893         1.145409
 H        -0.639545        -1.127806        -0.124150
 H         0.896622        -1.774022        -0.599966
 H         2.563382        -0.044087         3.537383
