19
Iteration:  4027
 C        -1.202760         0.720238         2.158364
 C         0.234829         0.947946         1.799347
 C         0.936200         2.230561         1.575212
 C         2.247154         1.409479         1.249713
 O         1.833122         0.797656        -0.070647
 C         0.895669         0.061807         0.807292
 C         0.253237        -1.295458         0.267663
 C         1.527701         0.343591         2.032633
 O         2.171982        -0.551531         2.918164
 H        -1.616257         1.533813         2.776536
 H        -1.919257         0.766054         1.350277
 H        -1.561353        -0.131421         2.625559
 H         0.473937         2.847494         0.730113
 H         1.105980         2.809464         2.561704
 H         3.303709         1.615842         1.234757
 H        -0.354821        -1.853582         0.949203
 H        -0.536854        -0.955981        -0.329563
 H         0.743621        -2.143084        -0.284199
 H         2.144953        -0.200663         3.847694
