19
Iteration:  4548charge 0 multiplicity 1
 C        -1.082251         0.740588         2.418923
 C         0.263592         0.957434         1.771315
 C         0.886096         2.275186         1.546164
 C         2.187869         1.623536         1.080539
 O         1.745742         0.825041        -0.075724
 C         0.919546        -0.041283         0.768042
 C         0.460687        -1.411713         0.128765
 C         1.587456         0.251963         2.011418
 O         1.922295        -0.567354         3.043377
 H        -1.242114         0.965621         3.462930
 H        -1.854545         1.331158         1.928862
 H        -1.305998        -0.301684         2.351646
 H         0.544912         2.867293         0.707279
 H         1.135575         2.838160         2.385314
 H         3.213131         2.052324         0.969864
 H         0.080512        -1.265377        -0.905510
 H         1.194524        -2.210018         0.099759
 H        -0.527401        -1.772830         0.614608
 H         1.951621        -0.132707         3.907225
