19
Iteration:  1207charge 0 multiplicity 1
 C        -1.007605         0.771314         2.446835
 C         0.304030         0.952183         1.781234
 C         0.959887         2.338118         1.599948
 C         2.212911         1.483999         1.111689
 O         1.779306         0.863874        -0.071672
 C         0.841176         0.005926         0.704795
 C         0.458334        -1.264350         0.055722
 C         1.605089         0.263430         2.027097
 O         1.788943        -0.755530         3.025913
 H        -1.214723         1.147086         3.482477
 H        -1.690579         1.296827         1.720281
 H        -1.479268        -0.227083         2.319199
 H         0.665445         3.193736         0.914641
 H         0.881018         2.871815         2.526111
 H         3.238644         1.788681         1.070533
 H         0.256300        -1.954730         0.809794
 H        -0.553736        -1.219300        -0.396795
 H         1.307356        -1.713897        -0.562095
 H         1.566484        -0.286518         3.825051
