19
Iteration:  2188
 C        -1.095601         0.754894         2.467945
 C         0.242907         1.005961         1.741931
 C         0.875885         2.317317         1.497534
 C         2.203826         1.464988         1.180364
 O         1.922606         0.841079        -0.086079
 C         0.887345         0.015641         0.704840
 C         0.358447        -1.282197         0.180247
 C         1.565957         0.184903         1.947208
 O         1.864605        -0.651168         2.990908
 H        -1.693069         1.661908         2.685822
 H        -1.777256        -0.056075         2.071704
 H        -0.750074         0.499206         3.481576
 H         0.507164         2.819105         0.613456
 H         1.074552         2.870889         2.422805
 H         3.242424         1.908459         1.276020
 H        -0.047674        -1.862561         1.025288
 H        -0.211170        -1.249106        -0.649646
 H         1.204328        -2.006892         0.016229
 H         1.944609         0.078830         3.636680
