19
Iteration:  4159charge 0 multiplicity 1
 C        -0.980746         0.638315         2.470332
 C         0.334344         0.939103         1.753152
 C         0.976255         2.253447         1.429645
 C         2.228631         1.480961         1.082232
 O         1.811356         0.808274        -0.149949
 C         0.863606        -0.024573         0.707441
 C         0.303988        -1.314489         0.053115
 C         1.569511         0.279830         2.085168
 O         1.830981        -0.477042         3.190322
 H        -1.189744         1.201329         3.508362
 H        -1.927459         0.999920         2.025820
 H        -1.020875        -0.451060         2.688315
 H         0.491034         3.065704         0.868905
 H         1.124413         2.637957         2.516641
 H         3.170059         2.070670         0.969393
 H        -0.506170        -1.627946         0.694955
 H        -0.020958        -0.962749        -0.904417
 H         1.145462        -1.976869        -0.291895
 H         1.467382        -0.046997         4.008461
