19
Iteration:  2384charge 0 multiplicity 1
 C        -1.060361         0.800349         2.519578
 C         0.160050         0.974900         1.712698
 C         0.984107         2.315867         1.439299
 C         2.218642         1.466808         1.183397
 O         1.845856         0.798185        -0.054017
 C         0.944355        -0.055439         0.706249
 C         0.431899        -1.395743         0.151939
 C         1.476259         0.258689         1.996167
 O         1.865020        -0.539864         2.985261
 H        -0.766727         0.840798         3.613316
 H        -1.749368         1.666758         2.335525
 H        -1.661009        -0.101534         2.290564
 H         0.522903         3.031597         0.751327
 H         1.215859         2.915356         2.343968
 H         3.196493         1.682042         1.103381
 H         0.144484        -2.173623         0.907031
 H        -0.552100        -1.249476        -0.432844
 H         1.310025        -1.728422        -0.492029
 H         1.660510        -0.160778         3.868396
