19
Iteration:  4951charge 0 multiplicity 1
 C        -1.077823         0.687799         2.447013
 C         0.256628         0.986179         1.836589
 C         0.952676         2.320563         1.510633
 C         2.165931         1.522451         1.092995
 O         1.776050         0.782322        -0.124171
 C         0.898900         0.003770         0.718886
 C         0.491004        -1.357967         0.129936
 C         1.559932         0.334138         2.048424
 O         1.819670        -0.532470         3.091708
 H        -1.016368         0.883869         3.471344
 H        -1.771137         1.337057         2.027158
 H        -1.500039        -0.318701         2.225387
 H         0.493539         3.007506         0.803017
 H         1.213984         2.919183         2.422517
 H         3.067772         2.095058         1.090867
 H         0.128806        -1.422278        -0.892968
 H         1.422806        -2.176474         0.137808
 H        -0.361506        -1.750874         0.787268
 H         2.371287        -1.284176         2.744657
