19
Iteration:  3153
 C        -1.065156         0.786659         2.416967
 C         0.194086         1.032313         1.679190
 C         0.945017         2.284987         1.493724
 C         2.195042         1.424242         1.224276
 O         1.891334         0.693151        -0.079178
 C         0.958596        -0.043497         0.680394
 C         0.395686        -1.301784         0.241119
 C         1.440513         0.326110         2.024377
 O         1.877970        -0.463012         3.023822
 H        -0.764553         0.965216         3.383069
 H        -1.941353         1.332630         2.201665
 H        -1.342818        -0.286715         2.540076
 H         0.505721         2.871877         0.625646
 H         0.896063         2.940621         2.388873
 H         3.220428         1.856258         1.311326
 H        -0.274072        -1.736664         0.922683
 H        -0.160201        -1.063276        -0.590986
 H         1.059603        -2.085233        -0.096766
 H         2.281129        -1.335799         2.785976
