19
Iteration:  2854
 C        -1.237104         0.682036         2.245190
 C         0.211621         1.041789         1.793528
 C         0.955552         2.276844         1.468130
 C         2.196331         1.372461         1.245381
 O         1.894282         0.667738        -0.074346
 C         0.883810         0.035723         0.756215
 C         0.188291        -1.230851         0.137525
 C         1.474222         0.284996         2.027283
 O         2.194347        -0.371694         3.179292
 H        -1.471651         0.619822         3.303569
 H        -2.076386         1.238425         1.732277
 H        -1.370506        -0.334190         1.894929
 H         0.702214         2.935764         0.703351
 H         1.277375         2.872480         2.357626
 H         3.458282         1.440441         1.266039
 H        -0.471797        -1.785425         0.825771
 H        -0.378829        -0.917102        -0.659100
 H         0.935063        -1.832521        -0.299424
 H         2.467348        -1.276398         2.836231
