19
Iteration:  2101charge 0 multiplicity 1
 C        -1.178034         0.735805         2.335151
 C         0.147893         0.937875         1.685634
 C         0.994508         2.270842         1.572474
 C         2.227220         1.439683         1.235381
 O         1.807691         0.754563        -0.016734
 C         0.936054        -0.038761         0.745847
 C         0.247883        -1.197810         0.066084
 C         1.580886         0.204368         1.985007
 O         2.113199        -0.526662         3.037165
 H        -1.942851         0.776338         1.519280
 H        -1.386676        -0.294446         2.756963
 H        -1.393240         1.526626         3.092081
 H         0.756465         3.130578         0.886436
 H         1.005506         2.620126         2.661358
 H         3.230226         2.079362         1.352251
 H        -0.275432        -1.829851         0.917807
 H        -0.577891        -0.810872        -0.469705
 H         0.929248        -1.930850        -0.603398
 H         2.007909         0.098597         3.757840
