19
Iteration:   173charge 0 multiplicity 1
 C        -1.106791         0.699571         2.234613
 C         0.166368         0.959320         1.590505
 C         0.942374         2.262449         1.558162
 C         2.182046         1.451176         1.246779
 O         1.904414         0.662509        -0.026139
 C         0.899886        -0.092900         0.788216
 C         0.116014        -1.240601         0.131527
 C         1.563411         0.209365         2.036003
 O         2.201134        -0.291563         3.125981
 H        -1.520374         1.561322         2.892630
 H        -2.075188         0.496409         1.555923
 H        -1.058938        -0.246308         2.767944
 H         0.641753         2.988863         0.707548
 H         0.894842         2.594198         2.606827
 H         3.170312         1.844054         1.115784
 H        -0.750604        -1.572778         0.609352
 H        -0.150757        -0.861831        -0.986586
 H         0.838067        -2.067516        -0.125726
 H         1.734012        -0.406644         3.940620
