19
Iteration:  2724charge 0 multiplicity 1
 C        -1.036736         0.764472         2.464553
 C         0.334144         0.943428         1.839260
 C         0.933498         2.364554         1.529029
 C         2.184250         1.489460         1.107430
 O         1.894092         0.806170        -0.084356
 C         0.883940        -0.079643         0.656658
 C         0.287776        -1.304615         0.121750
 C         1.544080         0.216317         2.005729
 O         1.886658        -0.520154         3.101273
 H        -1.719670         1.213480         1.746887
 H        -1.410735        -0.346614         2.470554
 H        -1.142531         1.208736         3.488621
 H         0.486174         2.981102         0.740149
 H         1.170886         2.906483         2.503260
 H         3.261979         2.026466         0.983469
 H        -0.321008        -2.051802         0.793268
 H        -0.145971        -0.916256        -0.806576
 H         1.162998        -1.945354        -0.192220
 H         1.155786        -1.133242         3.021602
