19
Iteration:  1846charge 0 multiplicity 1
 C        -1.176888         0.735604         2.188310
 C         0.210908         0.933170         1.714599
 C         0.888049         2.241879         1.535787
 C         2.169388         1.448738         1.165556
 O         1.877880         0.805729         0.013151
 C         0.911419        -0.040664         0.746202
 C         0.207250        -1.261669         0.176805
 C         1.608308         0.232013         2.105291
 O         2.170453        -0.502126         3.062375
 H        -1.360561         1.185300         3.197528
 H        -1.884594         1.289016         1.500989
 H        -1.583960        -0.283493         2.145955
 H         0.583441         2.874341         0.653061
 H         0.903998         2.878223         2.385413
 H         3.119620         1.896617         1.076007
 H        -0.422302        -1.809865         0.866296
 H        -0.455030        -1.013647        -0.684189
 H         1.017363        -1.894509        -0.242695
 H         2.056473        -0.208138         4.014916
