19
Iteration:  2000charge 0 multiplicity 1
 C        -1.087507         0.762798         2.462211
 C         0.202634         1.015196         1.828497
 C         0.943242         2.345987         1.541127
 C         2.162964         1.418699         1.232926
 O         1.871118         0.852794        -0.101105
 C         0.957225        -0.005710         0.665988
 C         0.403156        -1.386335         0.102291
 C         1.490593         0.272872         2.027132
 O         1.905502        -0.597229         2.937387
 H        -1.897444         1.002236         1.781980
 H        -1.217881        -0.268243         2.658383
 H        -1.271017         1.340218         3.370636
 H         0.488301         3.073356         0.803952
 H         1.119376         2.738484         2.551573
 H         3.241352         1.640749         1.133519
 H        -0.194364        -1.889058         0.828266
 H        -0.224006        -1.150889        -0.806347
 H         1.150391        -2.216536        -0.141192
 H         2.067567        -0.195890         3.817773
