19
Iteration:  2587charge 0 multiplicity 1
 C        -1.112662         0.670283         2.495719
 C         0.147528         1.031790         1.768788
 C         1.033102         2.286883         1.519367
 C         2.287197         1.407603         1.178914
 O         1.900976         0.707783        -0.069447
 C         0.925046         0.039666         0.706582
 C         0.303574        -1.229413         0.148019
 C         1.502259         0.351595         1.990553
 O         1.889423        -0.574132         2.928145
 H        -1.939915         0.374136         1.793476
 H        -0.964452        -0.255962         3.078907
 H        -1.442749         1.489130         3.176231
 H         0.749873         3.001865         0.746414
 H         1.080267         2.777357         2.482031
 H         3.266627         2.040979         1.350983
 H         0.088795        -1.953789         0.938256
 H        -0.524627        -1.077130        -0.563979
 H         1.010140        -1.801424        -0.527256
 H         1.555920        -0.193036         3.790020
