19
Iteration:  2605
 C        -1.092832         0.695818         2.340800
 C         0.249718         0.994942         1.743426
 C         0.984200         2.387174         1.511833
 C         2.188218         1.435428         1.237297
 O         1.856230         0.816335        -0.070147
 C         0.905999        -0.036646         0.689513
 C         0.219718        -1.231786         0.132868
 C         1.544151         0.207685         2.032242
 O         1.997626        -0.620911         3.056801
 H        -1.765100         0.255390         1.629273
 H        -1.073390        -0.123350         3.135880
 H        -1.530583         1.627169         2.741166
 H         0.554997         3.015593         0.677853
 H         1.233007         2.998453         2.459675
 H         3.188402         1.546475         1.226950
 H        -0.140732        -1.765209         1.106323
 H        -0.585920        -0.988270        -0.611745
 H         0.848422        -1.825078        -0.565588
 H         2.178648        -0.058955         3.863683
