19
Iteration:   799
 C        -1.146873         0.754750         2.447162
 C         0.223283         1.028643         1.844940
 C         0.921976         2.316221         1.502891
 C         2.195127         1.477004         1.102976
 O         1.811312         0.801210        -0.063267
 C         1.024627        -0.088538         0.684107
 C         0.364456        -1.287745         0.115196
 C         1.555033         0.277649         2.029378
 O         1.973868        -0.616981         3.043560
 H        -1.858179         1.556085         2.135552
 H        -1.612576        -0.178221         2.004459
 H        -1.188789         0.716457         3.582683
 H         0.554664         2.794669         0.595035
 H         1.177032         2.982931         2.353761
 H         3.225820         1.744957         1.102946
 H        -0.228554        -1.980001         0.868081
 H        -0.293540        -0.924888        -0.691502
 H         1.128083        -1.757379        -0.455420
 H         1.444061        -0.397016         3.808051
