19
Iteration:  1013
 C        -1.086850         0.665506         2.516168
 C         0.259982         0.931755         1.781642
 C         0.955219         2.369860         1.505571
 C         2.220451         1.541706         1.089522
 O         1.859742         0.852148        -0.096014
 C         0.995235        -0.013779         0.722384
 C         0.381691        -1.181488         0.096003
 C         1.600569         0.275310         2.049382
 O         1.760537        -0.786224         3.019774
 H        -1.005864         0.495505         3.635571
 H        -1.610735         1.635215         2.391997
 H        -1.690587        -0.137031         2.130279
 H         0.439679         2.801257         0.711087
 H         0.952711         3.014151         2.398804
 H         3.312286         1.923396         0.975065
 H         0.026998        -1.873969         0.798075
 H        -0.546718        -0.877380        -0.415744
 H         0.959010        -1.560104        -0.675301
 H         1.880589        -0.306868         3.845792
