19
Iteration:  3174
 C        -1.137198         0.792671         2.436257
 C         0.264394         0.929456         1.747373
 C         0.899546         2.329564         1.414505
 C         2.192659         1.504671         1.182318
 O         1.909714         0.759509        -0.067504
 C         0.856098        -0.014220         0.666305
 C         0.283977        -1.348270         0.167464
 C         1.612039         0.262358         2.035552
 O         1.916692        -0.538849         3.148510
 H        -1.286980         1.259782         3.294209
 H        -1.847788         1.217595         1.709092
 H        -1.515716        -0.250847         2.449611
 H         0.710569         3.165163         0.681481
 H         1.254773         2.931223         2.235288
 H         3.220610         2.010736         1.236508
 H        -0.533315        -1.684110         0.756516
 H        -0.152600        -1.216332        -0.788751
 H         1.001822        -2.204351         0.044396
 H         2.821668        -0.990301         3.002702
