19
Iteration:  1732
 C        -1.227765         0.634794         2.428362
 C         0.214483         0.979527         1.678421
 C         0.898480         2.307065         1.479763
 C         2.183451         1.474121         1.191706
 O         1.938355         0.766353        -0.043733
 C         0.951578        -0.048757         0.662051
 C         0.342547        -1.295245         0.193849
 C         1.616719         0.216049         1.931171
 O         1.954503        -0.435507         3.085559
 H        -0.763407         0.312020         3.421631
 H        -1.776550         1.578471         2.416437
 H        -1.936093        -0.040116         1.925114
 H         0.466948         2.968368         0.668324
 H         1.204082         2.955403         2.393896
 H         3.249024         1.761411         1.293455
 H        -0.327973        -1.627220         1.031652
 H        -0.236162        -1.039315        -0.779510
 H         1.030523        -2.167068        -0.002296
 H         1.612795         0.035866         3.880615
