19
Iteration:  4144
 C        -0.996778         0.655528         2.505836
 C         0.241588         0.981536         1.714058
 C         0.920213         2.374748         1.533835
 C         2.157835         1.444303         1.115482
 O         1.824690         0.709770        -0.092599
 C         0.973334        -0.024371         0.693744
 C         0.330129        -1.225603         0.067675
 C         1.581854         0.257587         1.921134
 O         1.870960        -0.496615         3.171334
 H        -0.790888         1.084352         3.488466
 H        -1.871783         1.092759         1.960149
 H        -1.109097        -0.421989         2.570440
 H         0.532517         2.860407         0.641989
 H         1.030168         2.976466         2.368790
 H         3.224507         1.633297         1.021619
 H        -0.247679        -1.765028         0.876409
 H        -0.252584        -1.088349        -0.872310
 H         1.195806        -1.977678        -0.037717
 H         1.217565        -0.125894         3.807177
