19
Iteration:  1016
 C        -1.074365         0.681063         2.546279
 C         0.232071         0.938773         1.782629
 C         0.961421         2.346493         1.509385
 C         2.214453         1.541596         1.079814
 O         1.850719         0.856161        -0.083189
 C         1.037337        -0.023378         0.715620
 C         0.361234        -1.165617         0.058462
 C         1.602553         0.276110         2.045869
 O         1.757822        -0.781953         3.013299
 H        -0.987166         0.446241         3.624750
 H        -1.753030         1.551425         2.300306
 H        -1.609574        -0.175604         2.115271
 H         0.590179         2.949096         0.624755
 H         0.949752         3.102424         2.339400
 H         3.262128         1.926542         1.091870
 H         0.097442        -1.919528         0.936267
 H        -0.573544        -0.919724        -0.382779
 H         0.985208        -1.716812        -0.603448
 H         1.842127        -0.334891         3.917891
