19
Iteration:  1440charge 0 multiplicity 1
 C        -1.132022         0.668137         2.404451
 C         0.186472         1.001143         1.638037
 C         0.904245         2.323814         1.536018
 C         2.255097         1.392533         1.231129
 O         1.931335         0.785908        -0.027742
 C         0.914331         0.045061         0.628287
 C         0.302462        -1.267626         0.133900
 C         1.511932         0.264899         2.034472
 O         1.983720        -0.568424         3.036182
 H        -1.923414         0.456221         1.634326
 H        -1.183498        -0.174788         3.110765
 H        -1.298234         1.569951         2.969802
 H         0.501415         3.015141         0.671244
 H         1.107184         2.859195         2.450477
 H         3.247704         1.964474         1.318232
 H         0.110388        -1.854468         1.101054
 H        -0.702324        -1.367798        -0.368957
 H         0.997137        -1.776140        -0.407804
 H         1.755076        -0.065961         3.811907
