19
Iteration:   370
 C        -1.223861         0.701754         2.308760
 C         0.195785         0.920178         1.629169
 C         0.895734         2.197502         1.436031
 C         2.190942         1.441485         1.275528
 O         1.898010         0.717531         0.004474
 C         0.862648        -0.051168         0.780099
 C         0.208397        -1.206458         0.111373
 C         1.597730         0.238431         2.013573
 O         2.248134        -0.364581         3.119452
 H        -1.729821         1.588459         2.771662
 H        -2.002624         0.392814         1.552434
 H        -1.230118        -0.107848         3.032329
 H         0.652740         2.982267         0.645969
 H         0.920496         2.706622         2.433561
 H         3.193993         1.814620         1.327218
 H        -0.655013        -1.629702         0.595509
 H        -0.110623        -0.748656        -0.918010
 H         0.931631        -2.014824        -0.122826
 H         1.536247        -0.289006         3.756828
