19
Iteration:  4722charge 0 multiplicity 1
 C        -1.081507         0.764839         2.473968
 C         0.238580         0.978875         1.804415
 C         0.881475         2.399973         1.455294
 C         2.086311         1.545436         1.149979
 O         1.828023         0.734186        -0.071188
 C         0.938498        -0.045807         0.632064
 C         0.487669        -1.368004         0.187765
 C         1.547546         0.277307         2.051601
 O         1.918553        -0.548264         3.050115
 H        -0.918760         1.234860         3.492976
 H        -1.913945         1.347776         1.973856
 H        -1.541110        -0.334288         2.529308
 H         0.423718         3.169403         0.755201
 H         0.951306         3.047405         2.449591
 H         3.114886         1.903162         1.189990
 H         0.250249        -1.339876        -0.898252
 H         1.301618        -2.093184         0.226014
 H        -0.450352        -1.863389         0.554621
 H         2.208589        -1.430468         2.713163
