19
Iteration:  4823
 C        -1.132072         0.612609         2.195348
 C         0.262210         0.871568         1.742521
 C         0.876058         2.259138         1.472765
 C         2.263647         1.440219         1.124286
 O         1.769087         0.821068        -0.083658
 C         0.935266        -0.003501         0.755583
 C         0.183472        -1.119545         0.123538
 C         1.605781         0.195446         2.076678
 O         2.082002        -0.423515         3.288290
 H        -1.500833         1.163723         3.099790
 H        -1.929961         0.798135         1.371468
 H        -1.204124        -0.468881         2.503804
 H         0.432296         2.794794         0.532656
 H         1.148884         2.844648         2.362725
 H         3.302534         1.744524         1.394008
 H        -0.778054        -0.771215        -0.292104
 H         0.644856        -1.763086        -0.509592
 H        -0.099853        -1.847414         0.990755
 H         2.993245        -0.677810         3.100487
