19
Iteration:  2668
 C        -1.262808         0.829256         2.195733
 C         0.202857         0.994366         1.885002
 C         0.969514         2.315490         1.626104
 C         2.161127         1.394087         1.288742
 O         1.881476         0.677381         0.010165
 C         0.920369        -0.052532         0.714575
 C         0.141677        -1.224764         0.044267
 C         1.499946         0.247447         2.073850
 O         2.327671        -0.523969         2.929545
 H        -1.762272         0.327474         1.332549
 H        -1.348489         0.019315         2.981789
 H        -1.823386         1.708488         2.486601
 H         0.503926         2.805846         0.777804
 H         1.217755         3.051500         2.397443
 H         3.303842         1.790827         1.407783
 H        -0.686819        -1.488085         0.712458
 H        -0.444155        -0.992381        -0.850071
 H         0.864706        -1.972887        -0.290121
 H         1.810100        -0.505588         3.780651
