19
Iteration:  4645
 C        -1.149092         0.573042         2.296481
 C         0.257188         0.911023         1.865880
 C         0.893743         2.266123         1.503660
 C         2.173357         1.475527         1.130773
 O         1.803619         0.678188        -0.114172
 C         0.902228        -0.096361         0.809980
 C         0.209559        -1.112312         0.078872
 C         1.673769         0.288124         2.055713
 O         2.093920        -0.345389         3.179219
 H        -1.535220         1.345479         3.020317
 H        -1.636890         0.818056         1.336538
 H        -1.530855        -0.471615         2.682702
 H         0.357642         2.922857         0.783461
 H         1.171442         2.845772         2.499602
 H         3.176345         1.961027         1.049686
 H         0.369378        -0.958411        -1.009551
 H         0.491325        -2.147935         0.376764
 H        -0.952634        -1.042965         0.078803
 H         2.761637        -1.013646         2.964707
