19
Iteration:   310charge 0 multiplicity 1
 C        -1.242801         0.718268         2.172619
 C         0.193735         0.974087         1.735017
 C         0.933825         2.293466         1.440610
 C         2.228997         1.490836         1.189623
 O         1.791794         0.709251        -0.032451
 C         0.878342        -0.031733         0.803040
 C         0.297852        -1.280696         0.249097
 C         1.588401         0.321512         2.102352
 O         2.117001        -0.485897         3.130982
 H        -1.310917         1.082018         3.207397
 H        -1.753408         1.476848         1.563538
 H        -1.729919        -0.290852         2.003436
 H         0.492883         2.884532         0.655863
 H         1.018010         2.845064         2.378159
 H         3.346767         1.747113         1.025135
 H        -0.286226        -1.927131         1.028494
 H        -0.349137        -1.084532        -0.589477
 H         1.193391        -1.893025        -0.098649
 H         2.853974        -0.995886         2.661550
