19
Iteration:  1859
 C        -1.197367         0.699591         2.138035
 C         0.254748         0.926629         1.861525
 C         0.858667         2.317657         1.506046
 C         2.199963         1.454041         1.236168
 O         1.796637         0.691406        -0.102214
 C         0.945440        -0.021711         0.762937
 C         0.240703        -1.133299         0.157599
 C         1.578636         0.240611         2.039585
 O         2.198901        -0.545657         3.118825
 H        -1.586995         1.216547         2.998000
 H        -1.765746         1.092902         1.244431
 H        -1.294914        -0.415007         2.395094
 H         0.377542         2.796824         0.703046
 H         0.964284         2.939312         2.376228
 H         3.225692         1.814675         1.322300
 H        -0.336809        -1.580284         0.897520
 H        -0.381776        -0.799741        -0.582743
 H         0.934616        -1.981960        -0.185638
 H         1.933543         0.019198         3.853890
