19
Iteration:  4155charge 0 multiplicity 1
 C        -0.946838         0.641796         2.490524
 C         0.283408         0.960648         1.742976
 C         0.919749         2.302654         1.466581
 C         2.236838         1.458823         1.057753
 O         1.819549         0.796960        -0.144258
 C         0.864256        -0.036361         0.678995
 C         0.344345        -1.286269         0.079064
 C         1.574091         0.257459         2.064108
 O         1.840227        -0.488756         3.201901
 H        -1.101144         1.124876         3.450445
 H        -1.840208         1.020755         1.941338
 H        -1.117032        -0.415828         2.642311
 H         0.517882         3.093953         0.836351
 H         1.221542         2.738822         2.360233
 H         3.201225         1.951341         1.128400
 H        -0.503399        -1.710618         0.655775
 H        -0.153245        -0.943895        -0.860475
 H         1.095681        -2.061269        -0.267172
 H         1.370250        -0.072670         3.936127
