19
Iteration:   198charge 0 multiplicity 1
 C        -1.147729         0.728136         2.452368
 C         0.184037         0.937816         1.772472
 C         0.928712         2.308612         1.474549
 C         2.187119         1.411774         1.159185
 O         1.938764         0.658312        -0.100055
 C         0.963738        -0.068641         0.667896
 C         0.315639        -1.257086         0.067516
 C         1.504419         0.279007         2.011409
 O         2.031636        -0.346047         3.136736
 H        -1.317105         1.461917         3.200988
 H        -1.991245         0.804287         1.726864
 H        -1.369411        -0.263278         2.914888
 H         0.616180         2.932860         0.676953
 H         1.013886         2.778542         2.453665
 H         3.305315         1.803984         1.155146
 H        -0.391480        -1.647590         0.928719
 H        -0.372563        -1.064118        -0.786105
 H         0.994284        -2.053840        -0.170754
 H         1.323494        -0.578716         3.753088
