19
Iteration:   178
 C        -1.134609         0.706992         2.255902
 C         0.155753         0.986320         1.568212
 C         0.908955         2.255814         1.544771
 C         2.148312         1.423472         1.234882
 O         1.927900         0.655524        -0.031453
 C         0.916209        -0.113269         0.735019
 C         0.156117        -1.227088         0.114254
 C         1.561601         0.258782         2.030499
 O         2.183340        -0.305641         3.140925
 H        -1.273678         1.464831         2.985469
 H        -1.968322         0.535843         1.668051
 H        -1.044456        -0.184865         2.932066
 H         0.548691         3.074700         0.968227
 H         1.084892         2.600889         2.581396
 H         3.244026         1.695264         1.148721
 H        -0.770749        -1.641939         0.671352
 H        -0.173863        -0.852074        -0.786967
 H         0.843732        -2.040280        -0.031259
 H         1.749887        -0.496398         4.013011
