19
Iteration:  1554
 C        -1.196787         0.794452         2.466340
 C         0.187197         0.921112         1.752664
 C         0.882496         2.306700         1.482047
 C         2.183416         1.471561         1.196260
 O         1.927084         0.763737        -0.087170
 C         0.963242         0.005230         0.683113
 C         0.421274        -1.306013         0.154207
 C         1.590078         0.294557         1.990484
 O         1.923734        -0.597525         3.000128
 H        -1.758663         1.728505         2.582734
 H        -1.806478         0.240064         1.698095
 H        -1.104775         0.200854         3.443940
 H         0.468650         2.984047         0.746512
 H         0.757608         2.749513         2.589160
 H         3.185722         1.954331         1.216993
 H        -0.233330        -1.618505         0.958222
 H        -0.073605        -1.257208        -0.777438
 H         1.233553        -2.190786         0.112941
 H         1.909027        -0.061801         3.819623
