19
Iteration:   847
 C        -1.051068         0.726773         2.540586
 C         0.188613         0.945457         1.726372
 C         0.939695         2.339139         1.546921
 C         2.227911         1.434498         1.199704
 O         1.903820         0.790495        -0.167325
 C         0.895955        -0.026023         0.652428
 C         0.404689        -1.272017         0.097431
 C         1.515929         0.270739         2.022538
 O         1.826084        -0.587535         3.012339
 H        -2.069594         0.536958         2.044832
 H        -0.794885        -0.200284         3.142050
 H        -1.184330         1.571365         3.312542
 H         0.534179         3.087637         0.817912
 H         1.117614         2.721878         2.534600
 H         3.213291         1.965764         1.278121
 H        -0.017120        -1.734472         0.909024
 H        -0.411860        -1.084763        -0.623895
 H         1.190217        -1.923624        -0.486036
 H         1.837467         0.027843         3.814859
