19
Iteration:  3658
 C        -1.178205         0.673516         2.277808
 C         0.179220         0.907093         1.660996
 C         0.931110         2.324284         1.538152
 C         2.204436         1.415702         1.119228
 O         1.895933         0.723449        -0.067025
 C         0.880279        -0.041968         0.731404
 C         0.216069        -1.165579         0.139375
 C         1.581402         0.278743         2.056021
 O         2.182867        -0.459743         3.171669
 H        -1.310418         1.207150         3.186875
 H        -2.095470         0.745832         1.652937
 H        -1.399438        -0.409108         2.639418
 H         0.513332         3.194757         0.804728
 H         1.051509         2.775592         2.575577
 H         3.177884         1.845983         1.271335
 H        -0.674325        -1.596543         0.604680
 H        -0.234294        -0.882596        -0.854796
 H         0.994075        -1.949439         0.012301
 H         1.517102        -0.608504         3.863646
