19
Iteration:  2116charge 0 multiplicity 1
 C        -1.132292         0.764920         2.367214
 C         0.252899         0.989050         1.745949
 C         0.922666         2.310657         1.582676
 C         2.172107         1.406435         1.228126
 O         1.891327         0.840618        -0.083102
 C         0.874478        -0.059125         0.654042
 C         0.252261        -1.291047         0.092370
 C         1.571999         0.240955         1.995582
 O         2.020654        -0.545075         3.066425
 H        -2.001219         0.995919         1.843709
 H        -1.156970        -0.308668         2.587997
 H        -1.180407         1.293972         3.327666
 H         0.548775         2.895265         0.746209
 H         1.145441         2.781168         2.518998
 H         3.175250         1.561523         1.257190
 H         0.045419        -2.062330         0.826602
 H        -0.532895        -1.025291        -0.673807
 H         1.012984        -1.746942        -0.448517
 H         1.942271        -0.210006         3.992702
