19
Iteration:  2733charge 0 multiplicity 1
 C        -1.010074         0.750650         2.489860
 C         0.279830         1.007818         1.800146
 C         0.958079         2.268897         1.552240
 C         2.183356         1.505371         1.107586
 O         1.888243         0.760751        -0.094543
 C         0.864016         0.009414         0.697910
 C         0.324466        -1.324874         0.089204
 C         1.608456         0.245305         1.940507
 O         1.820196        -0.504906         3.111450
 H        -1.797195         1.413300         2.018345
 H        -1.270988        -0.316337         2.373608
 H        -1.073894         0.924906         3.553115
 H         0.515949         2.828408         0.763373
 H         1.185667         2.934856         2.364837
 H         3.273441         2.099522         1.199432
 H        -0.309700        -1.958272         0.743110
 H        -0.294347        -1.153138        -0.779213
 H         1.210373        -1.889551        -0.181753
 H         1.286764        -1.279312         3.253837
