19
Iteration:  3477
 C        -1.216103         0.659639         2.366456
 C         0.233808         0.889808         1.785158
 C         0.962113         2.251777         1.482695
 C         2.183829         1.450989         1.159283
 O         1.815153         0.751022        -0.044483
 C         0.942935        -0.056511         0.706073
 C         0.269726        -1.165625         0.006662
 C         1.606398         0.185160         2.028026
 O         2.099708        -0.368777         3.199774
 H        -1.477082         1.618769         2.903537
 H        -1.927165         0.429853         1.499498
 H        -1.324107        -0.094194         3.089001
 H         0.764693         3.002265         0.617722
 H         1.125210         2.852407         2.520941
 H         3.240772         1.769007         1.006617
 H        -0.592247        -1.473134         0.521869
 H        -0.076388        -0.741283        -0.943608
 H         0.975165        -1.983078        -0.133615
 H         1.426783        -0.835285         3.735302
