19
Iteration:  3703
 C        -1.040394         0.575603         2.484310
 C         0.225930         0.995589         1.839674
 C         0.914305         2.273929         1.415147
 C         2.157218         1.450046         1.134948
 O         1.893964         0.753260        -0.142218
 C         1.051792        -0.068530         0.724949
 C         0.228407        -1.156928        -0.038785
 C         1.540783         0.247417         2.096242
 O         1.915069        -0.506519         3.198381
 H        -1.342467         1.511695         3.017696
 H        -1.848526         0.175653         1.854642
 H        -1.031790        -0.217197         3.335589
 H         0.532178         2.868169         0.403360
 H         1.139898         3.078359         2.149010
 H         3.131537         1.880412         1.086554
 H        -0.757158        -1.363039         0.300703
 H        -0.070354        -0.578516        -0.994999
 H         0.861132        -2.047282        -0.100173
 H         2.065007         0.173886         3.883037
