19
Iteration:  4196
 C        -1.054755         0.686237         2.374539
 C         0.239422         0.996855         1.799014
 C         0.904669         2.330263         1.429568
 C         2.102035         1.385092         1.214767
 O         1.881909         0.698279        -0.117826
 C         0.929291        -0.049208         0.727034
 C         0.273494        -1.168591         0.081312
 C         1.502250         0.259486         2.067034
 O         2.058686        -0.494313         3.093584
 H        -1.151209         1.355395         3.182944
 H        -1.872698         0.568489         1.664051
 H        -0.911123        -0.313042         2.879919
 H         0.369437         3.014841         0.704532
 H         0.948767         2.746172         2.547462
 H         3.149377         1.714461         1.282410
 H        -0.635106        -1.648256         0.496724
 H        -0.046793        -0.811872        -0.969354
 H         0.923206        -1.997890         0.073057
 H         1.981632         0.067057         3.911679
