19
Iteration:  1431charge 0 multiplicity 1
 C        -1.111071         0.720642         2.398915
 C         0.183709         0.981964         1.729030
 C         0.913025         2.407687         1.550573
 C         2.171729         1.410581         1.188043
 O         1.966949         0.784400        -0.056482
 C         0.861760         0.009058         0.631656
 C         0.380068        -1.286718         0.164254
 C         1.482954         0.232860         1.991611
 O         1.940925        -0.581593         3.015273
 H        -1.857893         0.338728         1.716294
 H        -0.881969        -0.043684         3.160071
 H        -1.514583         1.618855         2.923978
 H         0.812239         3.039310         0.673118
 H         0.893953         2.889062         2.530201
 H         3.274850         1.744913         1.292935
 H         0.294389        -1.959005         1.082908
 H        -0.522274        -1.191539        -0.382346
 H         1.068361        -1.807948        -0.408896
 H         1.877403        -0.343214         3.921429
