19
Iteration:   395
 C        -1.100838         0.655160         2.394073
 C         0.253518         0.970779         1.709848
 C         0.929464         2.297437         1.520403
 C         2.146721         1.458412         1.200837
 O         1.865375         0.705410        -0.091132
 C         0.931799        -0.061809         0.692113
 C         0.298844        -1.264701         0.009293
 C         1.517726         0.271583         2.054964
 O         2.004890        -0.412227         3.177022
 H        -1.673407         1.454296         2.711862
 H        -1.799492         0.188678         1.695701
 H        -0.996106        -0.071153         3.236648
 H         0.609127         2.923963         0.685424
 H         1.106829         2.947208         2.436115
 H         3.297710         1.544243         1.088603
 H        -0.512400        -1.624595         0.756147
 H        -0.196256        -0.985079        -0.846306
 H         0.923826        -2.048521        -0.211067
 H         2.148883         0.299910         3.803585
