19
Iteration:  3518
 C        -1.053545         0.626739         2.386069
 C         0.220722         0.947663         1.705780
 C         0.930028         2.333184         1.443463
 C         2.242508         1.532860         1.185156
 O         1.883570         0.698514         0.000173
 C         0.925537        -0.027173         0.750611
 C         0.292925        -1.213343         0.108465
 C         1.528900         0.274060         2.025581
 O         1.931586        -0.540855         3.076401
 H        -1.208119         1.286494         3.294170
 H        -1.814586         0.741690         1.686931
 H        -1.248675        -0.405823         2.762893
 H         0.577391         2.888648         0.610117
 H         0.941033         2.909384         2.333949
 H         3.097329         2.209199         1.069717
 H        -0.117624        -2.038305         0.640522
 H        -0.631570        -0.948328        -0.498706
 H         1.055705        -1.709805        -0.502182
 H         1.823724         0.093802         3.826039
