19
Iteration:  4444charge 0 multiplicity 1
 C        -1.210411         0.696155         2.159969
 C         0.304635         0.905069         1.785884
 C         0.899230         2.300472         1.551075
 C         2.172694         1.484049         1.132776
 O         1.718102         0.801627        -0.098525
 C         0.984482        -0.083969         0.731486
 C         0.235123        -1.230463         0.156548
 C         1.666774         0.294504         2.127837
 O         2.205966        -0.538267         3.158194
 H        -1.399076         1.479759         2.890671
 H        -1.799056         0.809175         1.317808
 H        -1.508930        -0.229551         2.630949
 H         0.403823         2.882883         0.762431
 H         0.810851         2.732839         2.548146
 H         3.197129         1.837745         1.091639
 H        -0.818506        -0.950203         0.349646
 H         0.305623        -1.259712        -0.923595
 H         0.506596        -2.216738         0.542651
 H         1.458992        -0.448074         3.799414
