19
Iteration:  2434charge 0 multiplicity 1
 C        -1.196241         0.728355         2.250294
 C         0.203537         0.950000         1.863622
 C         0.940935         2.276987         1.490573
 C         2.177216         1.527533         1.154100
 O         1.827324         0.689536        -0.059084
 C         0.981719        -0.095439         0.823631
 C         0.202303        -1.195995         0.165104
 C         1.705895         0.260498         2.061947
 O         2.056314        -0.540916         3.005146
 H        -1.478179         1.282269         3.154800
 H        -1.763505         0.946647         1.370380
 H        -1.412719        -0.310003         2.450461
 H         0.590736         2.960573         0.686128
 H         0.953836         2.907074         2.392299
 H         3.318048         2.011624         1.043775
 H        -0.622074        -1.450675         0.739859
 H        -0.337683        -0.820334        -0.686159
 H         0.783389        -2.030175        -0.141055
 H         2.210225        -0.063800         3.852013
