19
Iteration:   834charge 0 multiplicity 1
 C        -0.976035         0.726610         2.496966
 C         0.260279         1.008603         1.702822
 C         0.893259         2.267405         1.507659
 C         2.193842         1.468106         1.095830
 O         1.817379         0.828687        -0.038353
 C         0.926089         0.024880         0.691843
 C         0.390779        -1.227514         0.117878
 C         1.561971         0.201231         1.956287
 O         1.820447        -0.637985         3.079234
 H        -1.952518         0.907168         1.913070
 H        -1.018902        -0.302742         2.999600
 H        -0.969290         1.507745         3.356974
 H         0.452737         2.933722         0.713707
 H         0.959105         2.895236         2.358254
 H         3.193538         1.691516         1.084276
 H         0.106671        -1.994421         0.833425
 H        -0.348513        -1.128529        -0.666478
 H         1.385816        -1.715335        -0.264645
 H         1.537145        -0.236264         3.888913
