19
Iteration:  4857
 C        -1.142490         0.584927         2.281345
 C         0.250429         1.009347         1.804735
 C         0.854548         2.299576         1.531506
 C         2.205064         1.466395         1.135246
 O         1.869249         0.651898        -0.052579
 C         0.931361        -0.117872         0.826304
 C         0.218136        -1.157013         0.057257
 C         1.587303         0.300699         2.067507
 O         2.080894        -0.370747         3.125691
 H        -1.464446         1.332350         3.116888
 H        -1.828833         0.576729         1.332501
 H        -1.171164        -0.449236         2.649662
 H         0.231779         3.141193         0.887907
 H         1.104849         2.870530         2.458443
 H         3.286473         1.938148         1.149865
 H        -0.503823        -0.621157        -0.618658
 H         0.942498        -1.680881        -0.605527
 H        -0.437157        -1.722306         0.804510
 H         2.349082        -1.270843         2.925803
