19
Iteration:  4948charge 0 multiplicity 1
 C        -1.090585         0.685195         2.449265
 C         0.235783         0.970941         1.830118
 C         0.985237         2.323145         1.524263
 C         2.156725         1.558403         1.050141
 O         1.797489         0.781849        -0.125756
 C         0.891688         0.008902         0.742479
 C         0.504184        -1.348996         0.125071
 C         1.554930         0.330849         2.039047
 O         1.814840        -0.547060         3.102730
 H        -1.008269         0.869768         3.542979
 H        -1.830453         1.366900         1.996970
 H        -1.580380        -0.325059         2.351816
 H         0.349990         2.934152         0.732914
 H         1.286157         2.837338         2.458964
 H         3.093043         2.007697         1.040563
 H         0.103121        -1.415968        -0.903022
 H         1.353580        -2.152644         0.207632
 H        -0.265520        -1.718742         0.746928
 H         2.394889        -1.249622         2.778612
