19
Iteration:  4833charge 0 multiplicity 1
 C        -1.104018         0.553773         2.186727
 C         0.306613         0.926463         1.843125
 C         0.928756         2.279260         1.471733
 C         2.189497         1.444681         1.157600
 O         1.797498         0.804025        -0.071734
 C         0.931389        -0.073290         0.735062
 C         0.126977        -1.156272         0.085399
 C         1.606539         0.250222         2.119272
 O         2.076662        -0.402683         3.259820
 H        -1.427905         1.278711         2.969037
 H        -1.656349         0.779421         1.229026
 H        -1.375427        -0.487904         2.510150
 H         0.515284         2.857815         0.563354
 H         0.939253         2.960645         2.374719
 H         3.134783         1.950941         0.941897
 H        -0.748239        -0.782139        -0.445443
 H         0.746378        -1.649519        -0.530844
 H        -0.246629        -1.861187         0.896624
 H         2.864245        -0.918940         3.018806
