19
Iteration:  4695charge 0 multiplicity 1
 C        -1.141141         0.704454         2.434603
 C         0.141547         0.961015         1.712411
 C         0.956147         2.225573         1.567982
 C         2.181393         1.533013         1.159263
 O         1.891010         0.743162        -0.127574
 C         0.906169        -0.001995         0.675634
 C         0.346652        -1.287864         0.262518
 C         1.550915         0.292734         2.030063
 O         1.953099        -0.474627         3.011176
 H        -1.104754         1.206484         3.400951
 H        -2.039414         0.945754         1.881162
 H        -1.250585        -0.330151         2.570440
 H         0.477324         2.823850         0.782028
 H         0.912538         2.891361         2.395736
 H         3.208521         1.841089         1.351487
 H         0.314217        -1.193767        -0.836034
 H         0.973634        -2.231777         0.521200
 H        -0.675132        -1.507599         0.384063
 H         2.931181        -0.617476         3.007272
