19
Iteration:  1380
 C        -1.095848         0.864820         2.376455
 C         0.234741         0.993028         1.781392
 C         0.870173         2.281921         1.511370
 C         2.203498         1.531994         1.177480
 O         1.784266         0.823151        -0.132024
 C         0.940276         0.036973         0.743746
 C         0.462260        -1.265682         0.197652
 C         1.574674         0.207822         2.014942
 O         1.877143        -0.798145         3.020633
 H        -1.614543        -0.039557         2.056473
 H        -1.060014         0.927568         3.486054
 H        -1.790281         1.581671         1.857590
 H         0.445890         2.931748         0.710260
 H         1.252748         2.967956         2.366251
 H         3.041015         2.142418         1.378561
 H         0.120384        -2.013789         0.912393
 H        -0.083266        -1.161478        -0.736745
 H         1.503992        -1.796127        -0.153973
 H         1.875397        -0.515574         3.971885
