19
Iteration:   192charge 0 multiplicity 1
 C        -1.145245         0.708050         2.404749
 C         0.174504         0.907173         1.692405
 C         0.900897         2.328976         1.504485
 C         2.196410         1.367488         1.133534
 O         1.925445         0.637468        -0.069203
 C         0.970981        -0.058012         0.667758
 C         0.278664        -1.240574         0.076637
 C         1.474201         0.315027         2.049102
 O         2.116672        -0.346928         3.152115
 H        -1.331934         1.624800         3.068895
 H        -2.043297         0.804571         1.767136
 H        -1.194539        -0.272545         2.898481
 H         0.555379         3.173245         0.797192
 H         1.157242         2.660899         2.546428
 H         3.108037         1.761798         1.446565
 H        -0.376789        -1.436785         0.888858
 H        -0.334975        -1.063350        -0.817467
 H         0.867479        -2.162651        -0.197036
 H         1.285470        -0.434188         3.634828
