19
Iteration:  4608charge 0 multiplicity 1
 C        -1.100442         0.591471         2.438463
 C         0.207673         0.908716         1.688561
 C         0.901025         2.342167         1.436132
 C         2.148626         1.477424         1.271672
 O         1.878605         0.755279        -0.043576
 C         0.885436        -0.059801         0.695397
 C         0.128797        -1.289487        -0.002989
 C         1.592100         0.256128         2.061427
 O         2.215014        -0.319987         3.151256
 H        -1.322215         1.329576         3.286003
 H        -1.885584         0.890132         1.597382
 H        -1.400732        -0.512565         2.681602
 H         0.681809         3.059877         0.567868
 H         0.889554         2.983935         2.449568
 H         3.151684         1.752017         1.607895
 H         0.359239        -1.180740        -1.059216
 H         0.407248        -2.367901         0.312548
 H        -0.873507        -1.150842         0.193305
 H         1.906120        -1.235799         3.288901
