19
Iteration:   979
 C        -1.176585         0.715031         2.379771
 C         0.242234         0.973904         1.766056
 C         1.014631         2.370320         1.590128
 C         2.190387         1.429937         1.228824
 O         1.804491         0.827117        -0.035794
 C         0.929683        -0.008763         0.693481
 C         0.324804        -1.261885         0.057319
 C         1.526540         0.252496         2.028485
 O         2.029808        -0.654342         2.971735
 H        -1.158932         0.059169         3.296559
 H        -1.583161         1.697383         2.661582
 H        -1.997181         0.428421         1.679450
 H         0.605347         3.019032         0.802787
 H         1.092614         2.897239         2.529083
 H         3.294209         1.656986         1.110243
 H        -0.012757        -1.880891         0.810268
 H        -0.537851        -0.856792        -0.517864
 H         1.079037        -1.915368        -0.443902
 H         1.811003        -0.283012         3.871936
