19
Iteration:  1007
 C        -1.087625         0.663774         2.463350
 C         0.309528         0.934558         1.794115
 C         0.926960         2.359035         1.504910
 C         2.245281         1.547510         1.120545
 O         1.863314         0.831659        -0.108783
 C         0.925312         0.027671         0.738203
 C         0.388831        -1.185093         0.128364
 C         1.597690         0.250310         2.048891
 O         1.776161        -0.774127         3.014039
 H        -0.954444         0.552132         3.529977
 H        -1.477943         1.699899         2.532632
 H        -1.825140        -0.078955         2.076005
 H         0.217739         2.782998         0.688284
 H         1.025594         2.842379         2.500386
 H         3.198795         1.941911         0.897598
 H        -0.070812        -2.068900         0.769519
 H        -0.473076        -0.796457        -0.455182
 H         1.067089        -1.466485        -0.769717
 H         1.946994        -0.267112         3.870509
