19
Iteration:  1070charge 0 multiplicity 1
 C        -1.114772         0.713049         2.458191
 C         0.161351         0.954148         1.748592
 C         1.058657         2.266206         1.601068
 C         2.215752         1.424873         1.209832
 O         1.838643         0.798935        -0.062983
 C         0.898503         0.062662         0.649137
 C         0.290281        -1.179783         0.005941
 C         1.481606         0.197002         2.005816
 O         2.041226        -0.599977         3.021829
 H        -1.334320         1.478480         3.238668
 H        -1.963022         0.633159         1.734821
 H        -1.034998        -0.260498         2.954465
 H         0.545654         3.010223         1.021094
 H         1.191553         2.758647         2.566655
 H         3.226155         1.914061         1.264165
 H        -0.376808        -1.781808         0.684459
 H        -0.254911        -0.812000        -0.804620
 H         0.970223        -1.854191        -0.323902
 H         1.618186        -0.287674         3.881132
