19
Iteration:   567
 C        -1.213991         0.698917         2.254902
 C         0.136316         0.964407         1.578942
 C         0.868723         2.354226         1.473478
 C         2.180019         1.421615         1.243371
 O         1.934281         0.692545        -0.001266
 C         0.887457        -0.089071         0.802248
 C         0.200196        -1.273931         0.227824
 C         1.679457         0.292822         2.036244
 O         2.196135        -0.471895         3.018453
 H        -1.103991         0.424409         3.363828
 H        -1.631755         1.744207         2.151006
 H        -1.915417        -0.113635         1.959534
 H         0.649554         3.159420         0.787253
 H         0.921721         2.663618         2.530536
 H         3.219685         1.918663         1.255331
 H        -0.570071        -1.541828         0.994625
 H        -0.449260        -0.869819        -0.649753
 H         0.670410        -2.131691        -0.113514
 H         1.836985         0.024990         3.745651
