19
Iteration:  2192
 C        -1.112254         0.739899         2.464381
 C         0.207969         0.995989         1.722782
 C         0.892340         2.289753         1.523897
 C         2.226746         1.450157         1.212708
 O         1.933841         0.851754        -0.118524
 C         0.883377         0.026613         0.723839
 C         0.375213        -1.315865         0.203568
 C         1.546295         0.219164         1.941455
 O         1.898951        -0.626231         2.986993
 H        -1.633572         1.653860         2.551266
 H        -1.879326         0.024714         2.109107
 H        -0.795948         0.440078         3.490137
 H         0.529490         2.880802         0.657616
 H         1.035058         2.982157         2.384371
 H         3.238093         1.721259         1.194897
 H        -0.340177        -1.848212         0.986432
 H        -0.335545        -1.137108        -0.725887
 H         1.203478        -1.953622        -0.088923
 H         1.976118        -0.000567         3.733440
