19
Iteration:  4152
 C        -0.942772         0.648374         2.497826
 C         0.253725         0.970656         1.737680
 C         0.899194         2.321378         1.483494
 C         2.227815         1.449850         1.052279
 O         1.822250         0.783473        -0.134989
 C         0.879093        -0.039706         0.670445
 C         0.360688        -1.269526         0.083918
 C         1.579386         0.250367         2.037340
 O         1.847257        -0.495358         3.203969
 H        -0.998497         1.098287         3.454143
 H        -1.777534         1.007435         1.885664
 H        -1.160723        -0.437563         2.620142
 H         0.517287         3.094054         0.763556
 H         1.277267         2.859353         2.418018
 H         3.244557         1.875268         1.170698
 H        -0.460521        -1.768430         0.641730
 H        -0.224483        -0.950844        -0.843927
 H         1.031445        -2.050449        -0.182132
 H         1.311337        -0.071744         3.918262
