19
Iteration:  1589charge 0 multiplicity 1
 C        -1.072516         0.720651         2.387128
 C         0.258309         1.056230         1.735713
 C         0.920474         2.438272         1.391402
 C         2.208338         1.543747         1.112463
 O         1.770673         0.800599        -0.031960
 C         0.845066        -0.013908         0.783699
 C         0.542100        -1.347811         0.233415
 C         1.658477         0.330316         2.068052
 O         1.795057        -0.769926         2.995498
 H        -1.629968         1.567446         2.923965
 H        -1.653220         0.299366         1.531877
 H        -1.153115        -0.181996         3.082427
 H         0.585225         3.093293         0.536036
 H         0.821330         2.974721         2.462297
 H         3.167177         1.917960         0.883799
 H         0.083770        -1.909539         1.032670
 H        -0.190416        -1.373367        -0.637374
 H         1.550462        -1.883460         0.004625
 H         1.597444        -0.482584         3.925399
