19
Iteration:  3752charge 0 multiplicity 1
 C        -1.098393         0.716815         2.471515
 C         0.201242         0.964441         1.726804
 C         0.988922         2.302307         1.432804
 C         2.167354         1.451225         1.245459
 O         1.855811         0.803700        -0.082404
 C         0.952308        -0.023262         0.693250
 C         0.350126        -1.306222         0.069501
 C         1.461127         0.294386         2.029705
 O         1.982245        -0.545577         3.035866
 H        -1.456433         1.506213         3.243163
 H        -1.938051         0.421756         1.776906
 H        -1.038718        -0.208229         3.004147
 H         0.699025         2.940777         0.719194
 H         1.041976         2.841553         2.383514
 H         3.217627         1.864593         1.217021
 H        -0.300292        -1.682410         0.950491
 H        -0.395800        -1.141014        -0.723827
 H         1.205216        -1.987334        -0.114231
 H         1.843826        -0.238266         3.959680
