19
Iteration:  4483
 C        -1.170443         0.742636         2.265021
 C         0.157104         0.966684         1.826029
 C         0.842232         2.381317         1.500209
 C         2.141764         1.481989         1.224281
 O         1.883510         0.689070         0.009527
 C         0.928133        -0.031514         0.783643
 C         0.368950        -1.298985         0.207125
 C         1.519485         0.380670         2.023724
 O         2.153702        -0.616453         2.885054
 H        -1.393614         1.285915         3.207025
 H        -2.012505         1.114564         1.500135
 H        -1.307264        -0.337036         2.421721
 H         0.387455         2.884853         0.580434
 H         0.824512         3.134747         2.295856
 H         3.249428         1.649361         1.378529
 H        -0.705918        -1.168772         0.024268
 H         0.847223        -1.586524        -0.727921
 H         0.400988        -2.151590         0.969259
 H         2.232557        -0.221862         3.782971
