19
Iteration:  4047
 C        -1.252218         0.781225         2.130653
 C         0.226538         0.975535         1.710504
 C         0.983931         2.361191         1.591166
 C         2.133467         1.465238         1.210200
 O         1.752036         0.754036        -0.032173
 C         0.921659        -0.016066         0.797121
 C         0.230348        -1.218790         0.262409
 C         1.554680         0.225318         1.992704
 O         2.250987        -0.645670         3.023809
 H        -1.790138         1.320656         3.037940
 H        -1.889212         0.947028         1.210303
 H        -1.327090        -0.313933         2.293920
 H         0.764717         3.072050         0.746878
 H         1.146530         2.804281         2.572016
 H         3.122497         1.946499         1.216459
 H         0.020839        -1.849055         1.140901
 H        -0.553117        -1.322927        -0.434070
 H         1.096299        -1.850868        -0.112978
 H         2.341008        -0.131898         3.832272
