19
Iteration:  1726
 C        -1.181793         0.639339         2.420890
 C         0.177357         0.961579         1.664305
 C         0.930198         2.272423         1.451073
 C         2.172071         1.443897         1.245483
 O         1.918448         0.767573        -0.070891
 C         0.993041        -0.094734         0.657030
 C         0.311485        -1.270939         0.175536
 C         1.555386         0.298391         1.974350
 O         2.014762        -0.434886         3.111576
 H        -1.106836         0.263461         3.452692
 H        -1.790438         1.560205         2.413562
 H        -1.687726        -0.068273         1.733575
 H         0.531237         3.042669         0.783978
 H         1.111773         2.779720         2.366861
 H         3.203723         1.817283         1.230296
 H        -0.464780        -1.520397         0.916579
 H        -0.299101        -0.984402        -0.668994
 H         0.999896        -2.081330        -0.041451
 H         1.644047         0.109338         3.802159
