19
Iteration:  1707charge 0 multiplicity 1
 C        -1.131328         0.630141         2.214494
 C         0.274773         0.920440         1.726228
 C         0.884327         2.273454         1.503112
 C         2.183248         1.484433         1.157928
 O         1.849998         0.700798        -0.050357
 C         0.938766        -0.083805         0.774562
 C         0.212736        -1.217663         0.071564
 C         1.538256         0.286592         2.144287
 O         2.099288        -0.385598         3.143040
 H        -0.844641         0.377218         3.199008
 H        -1.671995         1.600633         2.190724
 H        -1.821348        -0.119170         1.698259
 H         0.543637         2.851282         0.654481
 H         0.905460         2.978604         2.425594
 H         3.207080         1.800915         1.202149
 H        -0.486656        -1.677010         0.726788
 H        -0.275008        -0.873304        -0.790624
 H         0.992011        -2.098440        -0.250863
 H         2.016887        -0.164857         4.066536
