19
Iteration:  2318charge 0 multiplicity 1
 C        -1.149586         0.675251         2.416998
 C         0.238924         1.038027         1.770219
 C         0.970527         2.348519         1.433181
 C         2.219599         1.430886         1.196430
 O         1.818951         0.705569        -0.099229
 C         0.927601        -0.042978         0.717009
 C         0.348826        -1.263598         0.182768
 C         1.582977         0.322319         2.047307
 O         1.936268        -0.560479         3.014831
 H        -1.041823         0.790056         3.511341
 H        -1.965640         1.326189         2.047070
 H        -1.526216        -0.337234         2.202223
 H         0.679029         3.007169         0.597556
 H         1.142726         2.958063         2.343172
 H         3.156305         1.763039         1.491131
 H        -0.057643        -2.036809         0.846826
 H        -0.601593        -0.982054        -0.466658
 H         1.179883        -1.657751        -0.520689
 H         1.843817        -0.014528         3.834543
