19
Iteration:  2247charge 0 multiplicity 1
 C        -1.230308         0.763993         2.199981
 C         0.258049         0.912943         1.932855
 C         0.899037         2.228968         1.494139
 C         2.179076         1.466624         1.171890
 O         1.777230         0.730504        -0.124058
 C         0.912414        -0.050894         0.800229
 C         0.211564        -1.144195         0.077454
 C         1.673494         0.287382         2.140052
 O         2.213414        -0.569887         3.080133
 H        -1.600450         1.764389         2.464241
 H        -1.696263         0.363570         1.291584
 H        -1.564011         0.043023         2.971435
 H         0.430759         2.880799         0.720348
 H         1.062718         2.842540         2.408472
 H         3.239296         1.753963         1.070923
 H        -0.736985        -1.480444         0.627579
 H        -0.223465        -0.928559        -0.955021
 H         0.903512        -1.954218         0.022563
 H         2.063480        -0.195786         3.994090
