19
Iteration:  4581charge 0 multiplicity 1
 C        -1.069788         0.643166         2.452488
 C         0.169761         1.021533         1.746070
 C         0.883393         2.226841         1.473847
 C         2.174083         1.471439         1.152669
 O         1.831597         0.726448        -0.110288
 C         0.914964        -0.011084         0.727082
 C         0.354253        -1.209516         0.091527
 C         1.520161         0.237965         2.105270
 O         2.096562        -0.429039         3.067397
 H        -1.126075         1.059590         3.437551
 H        -1.940025         0.991510         1.930493
 H        -1.325926        -0.374957         2.478955
 H         0.488862         2.825196         0.661839
 H         1.043144         2.910948         2.245629
 H         3.171280         1.933490         1.364628
 H         0.497141        -1.072341        -1.001774
 H         0.874238        -2.103898         0.363439
 H        -0.787111        -1.365102         0.273460
 H         1.456536        -0.879893         3.651661
