19
Iteration:  3840
 C        -1.273818         0.774981         2.197113
 C         0.175178         0.935881         1.766226
 C         0.906516         2.247618         1.494276
 C         2.157795         1.407391         1.215180
 O         1.899201         0.762079        -0.010242
 C         0.913782         0.059188         0.735770
 C         0.314813        -1.238797         0.247676
 C         1.472509         0.259312         2.149469
 O         2.197227        -0.579797         2.922276
 H        -1.128130         0.654273         3.340902
 H        -1.808910         1.719609         1.911921
 H        -1.651414        -0.040257         1.623216
 H         0.395904         2.778722         0.636507
 H         0.977081         2.958865         2.370740
 H         3.207957         1.712918         1.205425
 H         0.033827        -1.784380         1.246936
 H        -0.609458        -1.034730        -0.225140
 H         1.005349        -1.974031        -0.296638
 H         2.595984        -0.016252         3.631191
