19
Iteration:  1633charge 0 multiplicity 1
 C        -1.197081         0.714309         2.327948
 C         0.125478         0.930430         1.645560
 C         0.886735         2.311495         1.534472
 C         2.223416         1.510193         1.259682
 O         1.922441         0.741139        -0.060333
 C         0.967795        -0.009079         0.664622
 C         0.333697        -1.351618         0.234135
 C         1.530257         0.287402         2.025281
 O         2.032636        -0.527289         3.023888
 H        -0.984915         1.206820         3.326999
 H        -1.922039         1.314467         1.743302
 H        -1.421672        -0.359640         2.380953
 H         0.585650         3.013256         0.734637
 H         0.969447         3.000125         2.462238
 H         3.172355         1.990094         1.306710
 H        -0.033972        -1.996842         1.002356
 H        -0.571375        -1.236441        -0.413359
 H         1.082136        -1.878668        -0.398844
 H         1.961108         0.045358         3.840795
