19
Iteration:  2979
 C        -1.110941         0.683560         2.449848
 C         0.195378         0.893376         1.706486
 C         0.994897         2.301587         1.438194
 C         2.234815         1.379970         1.151415
 O         1.855747         0.821980        -0.095355
 C         0.932599        -0.073729         0.683625
 C         0.276494        -1.257303         0.137323
 C         1.563942         0.320196         2.061727
 O         1.945709        -0.394211         3.184315
 H        -1.374209         1.551744         3.135406
 H        -1.873852         0.701882         1.707806
 H        -1.168815        -0.276804         3.066607
 H         0.733974         2.848869         0.548489
 H         1.079400         2.867913         2.307437
 H         3.236500         1.701339         1.372295
 H        -0.452255        -1.690063         0.748623
 H        -0.303935        -0.950539        -0.763309
 H         1.012325        -2.001879        -0.215579
 H         1.801646        -1.316025         2.839125
