19
Iteration:   580
 C        -1.179651         0.724939         2.389215
 C         0.174457         0.915342         1.626884
 C         0.903465         2.287297         1.444892
 C         2.214930         1.502789         1.213447
 O         1.924653         0.704313        -0.016767
 C         1.065725        -0.111412         0.689851
 C         0.188666        -1.238681         0.222759
 C         1.506621         0.284464         2.007183
 O         2.082523        -0.456290         3.026564
 H        -1.015574         0.468709         3.455106
 H        -1.862940         1.645487         2.445197
 H        -1.826004        -0.017460         1.792867
 H         0.534117         2.962396         0.671833
 H         0.965114         2.884127         2.401909
 H         3.286649         1.852164         1.294555
 H        -0.484541        -1.711554         1.087768
 H        -0.401275        -0.971528        -0.707848
 H         0.884862        -2.020555        -0.001702
 H         1.882655        -0.197354         3.973533
