19
Iteration:  3517
 C        -1.046144         0.629771         2.385112
 C         0.226588         0.950436         1.719247
 C         0.922390         2.340023         1.444673
 C         2.235373         1.527725         1.180426
 O         1.882256         0.699225         0.006514
 C         0.927861        -0.031931         0.745703
 C         0.294479        -1.209856         0.104313
 C         1.529916         0.271518         2.020696
 O         1.933868        -0.537979         3.078872
 H        -1.221760         1.287451         3.275278
 H        -1.826113         0.730589         1.656057
 H        -1.262209        -0.420550         2.784097
 H         0.593187         2.895421         0.608053
 H         0.960375         2.899937         2.309678
 H         3.102312         2.188522         1.071790
 H        -0.145359        -2.060945         0.630795
 H        -0.637070        -0.948038        -0.509786
 H         1.064419        -1.729102        -0.500034
 H         1.791073         0.082679         3.816677
