19
Iteration:  3167charge 0 multiplicity 1
 C        -1.106751         0.772498         2.458272
 C         0.218965         0.946182         1.723473
 C         0.919200         2.334762         1.425720
 C         2.214930         1.491350         1.172506
 O         1.937371         0.764356        -0.017835
 C         0.902363        -0.047805         0.704532
 C         0.285778        -1.370437         0.158054
 C         1.564991         0.286049         2.004371
 O         1.884907        -0.500961         3.088970
 H        -1.186972         1.360189         3.451175
 H        -1.901094         1.291008         1.911435
 H        -1.455335        -0.285132         2.306568
 H         0.684677         3.077860         0.650610
 H         1.083753         2.916511         2.397311
 H         3.206640         1.840897         1.194143
 H        -0.454924        -1.686782         0.928823
 H        -0.240127        -1.354507        -0.807078
 H         1.074790        -2.074158         0.098247
 H         2.593975        -1.005785         2.680424
