19
Iteration:   594
 C        -1.083488         0.739321         2.412732
 C         0.221370         0.992240         1.844299
 C         0.875939         2.246203         1.403791
 C         2.153330         1.427432         1.151291
 O         1.959600         0.741899        -0.132872
 C         0.967667        -0.038526         0.696117
 C         0.332284        -1.273606         0.152949
 C         1.512198         0.304358         2.060970
 O         1.960678        -0.512621         3.085429
 H        -0.968933         0.342800         3.404676
 H        -1.652378         1.658435         2.439042
 H        -1.731641        -0.041710         1.915916
 H         0.517018         2.747047         0.462927
 H         0.993006         2.980862         2.224780
 H         3.063071         1.934505         1.226556
 H        -0.346396        -1.529365         1.045633
 H        -0.395757        -1.023020        -0.584454
 H         0.912649        -2.228847        -0.213650
 H         1.699563        -0.038188         3.876116
