19
Iteration:   959
 C        -1.253546         0.777117         2.325002
 C         0.148567         0.983747         1.732959
 C         1.021788         2.217495         1.620279
 C         2.193899         1.387765         1.313617
 O         1.851929         0.839385        -0.085465
 C         0.851737        -0.025669         0.706180
 C         0.238260        -1.224195         0.099293
 C         1.562660         0.242972         1.982068
 O         2.215491        -0.548751         2.976777
 H        -1.233684        -0.229648         2.816425
 H        -1.694605         1.484866         3.040063
 H        -1.935018         0.695046         1.465577
 H         0.788817         2.917898         0.871747
 H         1.136110         2.632188         2.643272
 H         3.255917         1.793670         1.520480
 H        -0.290785        -1.786857         0.856482
 H        -0.469884        -1.066383        -0.723832
 H         1.060455        -1.822486        -0.155294
 H         1.710358        -0.334616         3.752601
