19
Iteration:  3615
 C        -1.230202         0.859595         2.209927
 C         0.211275         0.955880         1.798173
 C         0.856801         2.275536         1.508531
 C         2.190555         1.439494         1.213395
 O         1.858242         0.820748        -0.042845
 C         0.841686        -0.035022         0.787048
 C         0.362352        -1.370590         0.215135
 C         1.625982         0.283929         2.028179
 O         2.185123        -0.553017         3.024791
 H        -1.498077         0.984116         3.322546
 H        -1.723164         1.746824         1.693955
 H        -1.922410        -0.003243         1.784022
 H         0.378398         2.908807         0.669422
 H         0.957181         2.841672         2.424068
 H         3.239381         1.726097         1.149947
 H         0.032136        -2.111546         0.978863
 H        -0.591830        -1.361426        -0.531018
 H         1.129652        -1.935072        -0.387761
 H         1.575204        -0.739925         3.771333
