19
Iteration:  1116charge 0 multiplicity 1
 C        -1.183137         0.731257         2.201045
 C         0.258343         0.920299         1.879753
 C         0.945035         2.236164         1.608251
 C         2.170624         1.451601         1.167811
 O         1.822603         0.834378        -0.052760
 C         0.903195        -0.029260         0.794984
 C         0.145325        -1.026900         0.035299
 C         1.604302         0.159468         2.084672
 O         2.184191        -0.700233         3.030597
 H        -1.500916         1.746799         2.457343
 H        -1.773285         0.304194         1.320622
 H        -1.371630         0.076185         3.113648
 H         0.778346         3.031732         0.855822
 H         0.884059         2.894284         2.509973
 H         3.082232         1.940503         0.929053
 H        -0.731878        -1.506042         0.585004
 H        -0.084321        -0.651264        -0.904202
 H         0.798291        -1.923542         0.094560
 H         2.252017        -0.138943         3.842620
