19
Iteration:  2229
 C        -1.178747         0.741752         2.246776
 C         0.177956         1.043869         1.800467
 C         0.911263         2.348506         1.589040
 C         2.183208         1.443474         1.142494
 O         1.820604         0.715879        -0.018230
 C         0.850351        -0.056673         0.744895
 C         0.258520        -1.230619         0.136563
 C         1.619412         0.184227         2.024696
 O         2.192449        -0.564292         3.040483
 H        -1.676588         1.771550         2.509560
 H        -1.749243         0.172258         1.523084
 H        -1.196758         0.280377         3.238129
 H         0.463985         2.899610         0.708139
 H         1.114831         2.928247         2.515742
 H         3.246690         1.889387         1.099450
 H        -0.574502        -1.730796         0.619407
 H        -0.005136        -0.729571        -0.933636
 H         0.982152        -2.083767        -0.079536
 H         1.886969        -0.280438         3.934402
