19
Iteration:  3027charge 0 multiplicity 1
 C        -1.211817         0.655691         2.189722
 C         0.209133         0.960129         1.915113
 C         0.923953         2.260098         1.425418
 C         2.244379         1.413770         1.174030
 O         1.881569         0.672554        -0.064058
 C         0.951023        -0.087382         0.762646
 C         0.132721        -1.129050         0.087727
 C         1.575343         0.286112         2.132200
 O         2.105337        -0.419979         3.171089
 H        -1.597146         1.638908         2.695081
 H        -1.883585         0.504332         1.269209
 H        -1.317821        -0.160393         2.932295
 H         0.634215         3.143588         0.648351
 H         1.272735         2.760328         2.451113
 H         3.244720         1.889028         1.195454
 H        -0.731116        -1.579578         0.761790
 H        -0.490162        -0.700149        -0.854463
 H         0.723530        -2.005621        -0.320515
 H         3.019040        -0.604289         2.987774
