19
Iteration:   215
 C        -1.088260         0.771502         2.462241
 C         0.284576         0.993806         1.813571
 C         0.921435         2.258875         1.368580
 C         2.227319         1.452731         1.148219
 O         1.825983         0.758698        -0.054119
 C         0.921949        -0.067887         0.734144
 C         0.355642        -1.355937         0.105523
 C         1.557628         0.255664         2.012015
 O         1.927572        -0.444060         3.149557
 H        -1.229074         1.403514         3.419018
 H        -1.985835         1.120938         1.877216
 H        -1.059377        -0.293880         2.598727
 H         0.486302         2.626474         0.353231
 H         1.144337         3.133029         2.011826
 H         3.095875         1.969288         1.325564
 H        -0.144894        -2.049286         0.662320
 H        -0.210913        -1.039181        -0.820474
 H         1.233746        -1.810350        -0.443920
 H         1.011506        -0.556395         3.473783
