19
Iteration:   673charge 0 multiplicity 1
 C        -1.101057         0.782733         2.453325
 C         0.178721         0.944374         1.676163
 C         0.933203         2.221927         1.438614
 C         2.169209         1.411926         1.228375
 O         1.919380         0.832022        -0.026932
 C         0.877062         0.022857         0.613093
 C         0.325180        -1.391849         0.232194
 C         1.518021         0.249313         1.976996
 O         1.991992        -0.461784         3.006131
 H        -0.945632         0.671506         3.525788
 H        -1.718435         1.663321         2.429271
 H        -1.715619        -0.008041         2.083145
 H         0.522832         2.936698         0.667633
 H         1.182254         2.791511         2.333311
 H         3.259067         1.738700         1.332919
 H        -0.046742        -1.888380         1.043126
 H        -0.419861        -1.460243        -0.573678
 H         1.338653        -1.954751        -0.055795
 H         1.715999        -0.064743         3.820920
