19
Iteration:  4455
 C        -1.213570         0.711334         2.176829
 C         0.186864         0.815479         1.806321
 C         0.929945         2.254363         1.444362
 C         2.141481         1.515257         1.103771
 O         1.787290         0.851360        -0.050114
 C         0.956653        -0.026095         0.814452
 C         0.244128        -1.191294         0.189443
 C         1.617777         0.322228         2.074203
 O         2.236568        -0.612264         3.138930
 H        -1.503754         1.473007         2.901260
 H        -1.810304         0.959140         1.377245
 H        -1.499735        -0.254540         2.578978
 H         0.474769         2.830453         0.621105
 H         1.182197         2.937208         2.295168
 H         3.133804         1.925826         1.117125
 H        -0.867640        -1.209085         0.287031
 H         0.551158        -1.303301        -0.860618
 H         0.509492        -2.112260         0.710885
 H         1.658600        -0.645668         3.950233
