19
Iteration:  4436charge 0 multiplicity 1
 C        -1.141606         0.711452         2.179851
 C         0.284068         0.938161         1.780274
 C         0.833255         2.284844         1.607681
 C         2.216256         1.486567         1.207850
 O         1.723504         0.755100        -0.116371
 C         1.002556        -0.067564         0.751919
 C         0.195786        -1.252524         0.141234
 C         1.696251         0.189735         2.044197
 O         2.148532        -0.439564         3.135734
 H        -1.573670         1.504867         2.837457
 H        -1.763806         0.786930         1.277379
 H        -1.289685        -0.351667         2.580399
 H         0.526522         3.018908         0.919105
 H         0.961239         2.856815         2.569360
 H         3.160729         1.922239         0.963246
 H        -0.904096        -1.213779         0.337517
 H         0.386096        -1.143339        -1.044296
 H         0.514526        -2.217590         0.482468
 H         1.559931        -0.458020         3.923432
