19
Iteration:   501charge 0 multiplicity 1
 C        -1.168817         0.814184         2.219656
 C         0.193942         0.957236         1.737807
 C         0.915563         2.338056         1.491672
 C         2.171511         1.512357         1.123956
 O         1.762876         0.721606        -0.044478
 C         0.863292        -0.027645         0.749100
 C         0.399691        -1.325651         0.221790
 C         1.538248         0.260147         2.125003
 O         2.150869        -0.613708         3.051974
 H        -1.364144         1.268509         3.260377
 H        -1.682624         1.496739         1.463446
 H        -1.721924        -0.140713         2.193820
 H         0.556903         3.160907         0.860883
 H         0.960791         2.650025         2.535591
 H         3.203978         1.893654         0.966822
 H        -0.047809        -1.801187         1.144109
 H        -0.503129        -1.263096        -0.528254
 H         1.188776        -1.920735        -0.238945
 H         2.387993        -0.179014         3.901137
