19
Iteration:  4078
 C        -1.188628         0.834279         2.207812
 C         0.265381         0.907680         1.837086
 C         0.879287         2.256426         1.536768
 C         2.156824         1.443054         1.156027
 O         1.776115         0.764921        -0.065325
 C         0.968621        -0.082325         0.833139
 C         0.339517        -1.212992         0.225822
 C         1.616064         0.309391         2.072097
 O         2.082467        -0.595397         2.954918
 H        -1.526249         1.145747         3.252162
 H        -1.826949         1.473489         1.532934
 H        -1.772239        -0.114740         2.060368
 H         0.453272         2.820359         0.709163
 H         1.020193         2.857002         2.371411
 H         3.201037         1.839809         1.126469
 H        -0.034370        -2.006808         0.923197
 H        -0.544572        -1.039233        -0.420285
 H         1.118756        -1.786059        -0.316538
 H         2.292307        -0.130775         3.811167
