19
Iteration:  2487
 C        -1.241275         0.701489         2.295644
 C         0.133292         1.023976         1.776808
 C         0.988878         2.349470         1.587310
 C         2.253752         1.385609         1.218001
 O         1.820312         0.721855        -0.017802
 C         0.908405        -0.061780         0.728418
 C         0.236970        -1.255477         0.127691
 C         1.589833         0.233761         2.035389
 O         2.175252        -0.472282         2.972037
 H        -1.683553         1.686182         2.376863
 H        -1.902291         0.221185         1.467997
 H        -1.309171         0.328232         3.361956
 H         0.583182         2.841878         0.727892
 H         1.193055         3.011233         2.434601
 H         3.444512         1.738374         1.406441
 H        -0.736259        -1.643569         0.682333
 H        -0.043966        -1.050984        -0.916553
 H         0.806803        -2.142244        -0.203749
 H         1.847010        -0.267136         3.871738
