19
Iteration:  2304charge 0 multiplicity 1
 C        -1.146298         0.666890         2.355469
 C         0.151476         0.981183         1.746497
 C         0.993354         2.327191         1.487788
 C         2.193622         1.429134         1.169547
 O         1.949629         0.711809        -0.025983
 C         0.854634        -0.007542         0.738149
 C         0.256312        -1.200872         0.181023
 C         1.486429         0.247097         2.036424
 O         2.045746        -0.507402         3.008217
 H        -1.294060         0.887577         3.509381
 H        -1.911657         1.214769         1.849421
 H        -1.275821        -0.412002         2.285972
 H         0.640813         2.933174         0.571882
 H         1.087038         2.913315         2.448848
 H         3.292417         1.751698         0.876217
 H         0.011802        -1.826699         1.042649
 H        -0.557649        -0.931445        -0.664408
 H         0.998740        -1.886252        -0.338919
 H         2.167856         0.009098         3.831841
