19
Iteration:  2159charge 0 multiplicity 1
 C        -1.041506         0.710868         2.487667
 C         0.229081         1.001465         1.734429
 C         0.918566         2.348748         1.473210
 C         2.255917         1.517928         1.081250
 O         1.811177         0.801880        -0.131980
 C         0.961251        -0.023823         0.815741
 C         0.434704        -1.293208         0.146599
 C         1.578109         0.327700         2.110821
 O         1.767022        -0.710951         2.973836
 H        -1.643066         1.539464         2.465684
 H        -1.603850        -0.235220         2.289997
 H        -0.727645         0.724003         3.556267
 H         0.513446         2.911789         0.616535
 H         1.026945         2.935929         2.408651
 H         3.217212         1.948022         1.077257
 H         0.040736        -2.123018         0.835593
 H        -0.346290        -0.923036        -0.628066
 H         1.219349        -1.808453        -0.438707
 H         1.571412        -0.261839         3.851414
