19
Iteration:   851
 C        -1.076067         0.705390         2.584186
 C         0.182313         0.943876         1.708967
 C         0.963113         2.315301         1.552388
 C         2.198241         1.454116         1.232693
 O         1.916250         0.765579        -0.159757
 C         0.902316        -0.012234         0.605497
 C         0.391335        -1.310944         0.080386
 C         1.515833         0.339517         2.004796
 O         1.839322        -0.574311         3.011928
 H        -1.945929         0.537351         1.979518
 H        -0.868044        -0.134097         3.201091
 H        -1.344275         1.516387         3.206080
 H         0.749511         3.122173         0.848725
 H         1.173265         2.761200         2.600044
 H         3.256098         1.969088         1.294421
 H        -0.118271        -1.825399         0.987513
 H        -0.400528        -1.014673        -0.659127
 H         1.063937        -1.882296        -0.447981
 H         1.973701        -0.091919         3.823488
