19
Iteration:  3522
 C        -1.081233         0.621166         2.402867
 C         0.201349         0.944042         1.655430
 C         0.954242         2.291868         1.441261
 C         2.254673         1.548536         1.201665
 O         1.892993         0.703512        -0.033951
 C         0.915633        -0.013881         0.765578
 C         0.284771        -1.222597         0.115802
 C         1.538796         0.286902         2.058586
 O         1.919471        -0.546014         3.069691
 H        -1.155528         1.243286         3.292881
 H        -1.958763         0.857523         1.711113
 H        -1.124361        -0.401566         2.678007
 H         0.503488         2.910091         0.571776
 H         0.878785         2.949634         2.442339
 H         3.136903         2.202063         1.069871
 H        -0.013672        -2.009683         0.852736
 H        -0.543136        -0.925447        -0.466639
 H         1.032822        -1.625775        -0.566136
 H         1.985331         0.043330         3.855920
