19
Iteration:  4377charge 0 multiplicity 1
 C        -0.977189         0.616989         2.453419
 C         0.238807         0.956777         1.747867
 C         0.856587         2.334188         1.375834
 C         2.178834         1.417271         1.189386
 O         1.878247         0.728198         0.009709
 C         0.879932        -0.067717         0.734035
 C         0.311812        -1.196096        -0.015217
 C         1.572892         0.282782         2.072417
 O         1.899110        -0.465531         3.114588
 H        -0.925944         1.107435         3.424094
 H        -1.807264         0.996116         1.932080
 H        -1.161960        -0.388942         2.716712
 H         0.660331         2.879843         0.443319
 H         1.042087         2.890380         2.262591
 H         3.179014         1.928154         1.080488
 H        -0.527214        -1.688172         0.500652
 H        -0.129715        -0.867176        -0.916948
 H         1.090368        -1.951772        -0.374036
 H         1.957563         0.000924         3.961595
