19
Iteration:  4365charge 0 multiplicity 1
 C        -0.972339         0.701589         2.521836
 C         0.279185         0.894626         1.708388
 C         0.797735         2.249082         1.385842
 C         2.264186         1.516988         1.134030
 O         1.902618         0.697617        -0.013000
 C         0.927211        -0.038177         0.753292
 C         0.273691        -1.204889        -0.039705
 C         1.584635         0.391342         2.093650
 O         1.838426        -0.572802         3.121087
 H        -0.992883         1.155748         3.479066
 H        -1.755857         1.164599         1.957060
 H        -1.158029        -0.302247         2.507140
 H         0.151416         2.694593         0.561251
 H         0.662419         3.000006         2.129574
 H         3.328051         1.942084         1.197537
 H        -0.211664        -1.872127         0.668302
 H        -0.278760        -0.830408        -0.790734
 H         1.183303        -1.822546        -0.355385
 H         1.921909        -0.017175         3.938928
