19
Iteration:   715
 C        -1.210821         0.743208         2.154288
 C         0.297441         0.941597         1.912701
 C         0.891417         2.254374         1.465399
 C         2.170611         1.511552         1.033742
 O         1.847452         0.721068        -0.002608
 C         0.860499        -0.048553         0.890650
 C         0.229276        -1.186873         0.197930
 C         1.640791         0.309649         2.072387
 O         2.150237        -0.598908         3.019613
 H        -1.494259         1.055029         3.178101
 H        -1.804488         1.209092         1.384717
 H        -1.483537        -0.307057         2.005081
 H         0.397541         2.896484         0.684772
 H         1.039602         2.864338         2.328367
 H         3.108610         1.992678         1.110696
 H        -0.429881        -1.701219         0.804787
 H        -0.313200        -0.851876        -0.669707
 H         1.038189        -2.008273        -0.011310
 H         1.995501        -0.166032         3.900059
