19
Iteration:  2485
 C        -1.244708         0.707816         2.274460
 C         0.144912         0.999198         1.776076
 C         0.987722         2.328609         1.575860
 C         2.287956         1.388726         1.223614
 O         1.801056         0.728445        -0.019359
 C         0.919538        -0.048001         0.726910
 C         0.219456        -1.240921         0.153552
 C         1.599264         0.226247         2.043546
 O         2.185789        -0.469904         2.977738
 H        -1.675023         1.690420         2.400750
 H        -1.890767         0.187366         1.419283
 H        -1.356492         0.276388         3.345845
 H         0.568937         2.852139         0.704579
 H         1.080490         3.041318         2.441962
 H         3.318447         1.732178         1.414468
 H        -0.855509        -1.625601         0.658202
 H        -0.071511        -0.983408        -0.949724
 H         0.848856        -2.146430        -0.186829
 H         1.842593        -0.260368         3.838541
