19
Iteration:   652charge 0 multiplicity 1
 C        -1.052945         0.798905         2.536552
 C         0.204508         0.945135         1.752395
 C         0.940521         2.346376         1.518255
 C         2.196050         1.505996         1.111823
 O         1.862340         0.702028        -0.151772
 C         0.924667        -0.066439         0.655259
 C         0.481860        -1.373797         0.152218
 C         1.535909         0.273899         1.956646
 O         1.783429        -0.513326         3.072725
 H        -0.857303         0.528585         3.590148
 H        -1.578503         1.736216         2.675050
 H        -1.689649         0.044084         2.164223
 H         0.541959         3.034961         0.709411
 H         0.845840         2.897445         2.465445
 H         3.319791         1.814028         1.204752
 H         0.106954        -1.905521         0.966806
 H        -0.338498        -1.281073        -0.588370
 H         1.426739        -1.926626        -0.271675
 H         1.676120         0.115399         3.848160
