19
Iteration:  3731charge 0 multiplicity 1
 C        -0.980719         0.661024         2.462028
 C         0.184598         0.970913         1.630058
 C         0.778574         2.345831         1.482858
 C         2.196008         1.444870         1.204431
 O         1.923573         0.683654         0.004583
 C         0.946727        -0.017922         0.776470
 C         0.273488        -1.203955         0.028005
 C         1.637215         0.266263         1.975358
 O         1.904986        -0.529854         3.062178
 H        -1.209576         1.602560         2.991906
 H        -2.029744         0.368808         2.103156
 H        -0.850334        -0.012292         3.265028
 H         0.446211         2.979187         0.789406
 H         0.841593         2.898209         2.441923
 H         3.219659         1.858270         1.045518
 H        -0.651053        -1.654041         0.553283
 H        -0.145797        -0.915070        -0.902171
 H         1.067930        -1.984556        -0.195074
 H         2.182875         0.030148         3.833384
