19
Iteration:  1581charge 0 multiplicity 1
 C        -1.090551         0.719946         2.368479
 C         0.242887         0.999027         1.758965
 C         0.959860         2.416397         1.387805
 C         2.176065         1.530481         1.089320
 O         1.769853         0.815465        -0.034043
 C         0.912407         0.010477         0.816332
 C         0.548515        -1.340014         0.236372
 C         1.595289         0.315879         2.082434
 O         1.807857        -0.757171         2.981902
 H        -1.560979         1.651655         2.788021
 H        -1.810086         0.335786         1.638260
 H        -0.755740         0.050777         3.126399
 H         0.371924         3.062001         0.658177
 H         0.929659         2.974677         2.312862
 H         3.200257         1.936750         1.011968
 H        -0.056481        -1.920479         1.004619
 H        -0.135043        -1.347137        -0.744316
 H         1.424777        -1.843328         0.004479
 H         1.568212        -0.419958         3.862407
