19
Iteration:   479
 C        -1.216580         0.841836         2.374669
 C         0.131080         0.998986         1.733617
 C         0.874838         2.271544         1.470484
 C         2.216294         1.437516         1.257880
 O         1.928989         0.766648        -0.117146
 C         0.957130        -0.007984         0.723384
 C         0.375429        -1.355150         0.305566
 C         1.549956         0.248561         2.007704
 O         2.048745        -0.551147         2.922557
 H        -1.287668         1.568875         3.287997
 H        -2.166261         1.008094         1.758827
 H        -1.272610        -0.178548         2.782871
 H         0.514596         2.957717         0.684860
 H         0.966168         2.810623         2.422101
 H         3.182882         1.909850         1.195030
 H         0.053128        -2.023596         1.167931
 H        -0.516083        -1.324755        -0.467739
 H         1.202054        -1.872762        -0.248921
 H         1.588179        -0.285753         3.749109
