19
Iteration:  1068
 C        -1.123356         0.703386         2.458568
 C         0.167140         0.966425         1.749335
 C         1.033620         2.263129         1.582004
 C         2.229538         1.409315         1.229173
 O         1.848762         0.792840        -0.060541
 C         0.887120         0.073141         0.642466
 C         0.287490        -1.179809         0.006477
 C         1.495911         0.216641         2.000794
 O         2.033808        -0.601160         3.018881
 H        -1.249217         1.437622         3.285624
 H        -1.988011         0.645392         1.816278
 H        -1.021150        -0.237151         2.962957
 H         0.575917         3.044347         1.089015
 H         1.177821         2.716094         2.549212
 H         3.258526         1.913792         1.242346
 H        -0.309039        -1.739552         0.674391
 H        -0.354302        -0.884748        -0.847700
 H         1.024902        -1.843156        -0.286661
 H         1.595201        -0.306387         3.855798
