19
Iteration:  2647
 C        -1.310195         0.779209         2.161942
 C         0.266692         0.950519         1.919988
 C         0.914559         2.305031         1.592848
 C         2.169997         1.421722         1.152563
 O         1.822626         0.716477        -0.041858
 C         1.006829        -0.145743         0.780553
 C         0.172051        -1.110052         0.112182
 C         1.575846         0.241240         2.066736
 O         2.260346        -0.597945         3.007176
 H        -1.798870         0.357529         1.276120
 H        -1.730779         0.161503         3.016002
 H        -1.648513         1.806183         2.236181
 H         0.568734         3.096858         0.890150
 H         1.203184         2.745507         2.593646
 H         3.201590         1.803724         1.319537
 H        -0.640207        -1.399585         0.800564
 H        -0.359065        -0.581768        -0.712834
 H         0.770173        -1.833124        -0.449905
 H         2.128301        -0.126713         3.855005
