19
Iteration:  2937charge 0 multiplicity 1
 C        -1.053361         0.780965         2.483862
 C         0.196759         1.030696         1.680526
 C         0.922847         2.303737         1.478131
 C         2.203876         1.433263         1.126630
 O         1.868070         0.710969        -0.097606
 C         0.910957        -0.051777         0.754497
 C         0.434887        -1.327697         0.155755
 C         1.541049         0.376007         2.091771
 O         1.776374        -0.534121         3.062475
 H        -0.793396         1.166963         3.543591
 H        -1.956990         1.309832         2.202270
 H        -1.334788        -0.306342         2.485040
 H         0.721023         3.102468         0.624661
 H         0.994005         2.920965         2.403228
 H         3.134750         1.724772         0.970969
 H        -0.069794        -2.000063         0.881385
 H        -0.301210        -1.157456        -0.776343
 H         1.338400        -1.935790        -0.192669
 H         2.618970        -0.951442         2.875828
