19
Iteration:  2589charge 0 multiplicity 1
 C        -1.121645         0.665023         2.474346
 C         0.165837         1.032184         1.773251
 C         1.034331         2.289703         1.539948
 C         2.272896         1.400757         1.183127
 O         1.894434         0.713330        -0.074677
 C         0.935324         0.037164         0.696414
 C         0.292315        -1.237489         0.135891
 C         1.498833         0.352434         1.998779
 O         1.898474        -0.569277         2.935723
 H        -1.989106         0.371809         1.793821
 H        -0.911476        -0.176138         3.110859
 H        -1.445855         1.463402         3.135917
 H         0.813502         2.960831         0.716412
 H         1.051961         2.831759         2.442854
 H         3.279122         2.048361         1.341353
 H         0.074402        -1.918297         0.864714
 H        -0.581826        -1.067926        -0.489525
 H         1.008075        -1.829147        -0.437271
 H         1.638387        -0.225634         3.822387
