19
Iteration:  2693charge 0 multiplicity 1
 C        -1.204860         0.811645         2.300574
 C         0.140144         0.946343         1.687149
 C         0.993099         2.236375         1.506748
 C         2.212822         1.390202         1.278651
 O         1.846308         0.778864        -0.047728
 C         0.866276         0.008079         0.774740
 C         0.265389        -1.166788         0.171319
 C         1.548223         0.191885         2.027330
 O         2.204327        -0.549606         3.027961
 H        -2.016692         0.623087         1.625720
 H        -1.142912        -0.163865         2.928212
 H        -1.462827         1.662550         2.991108
 H         0.717922         2.952933         0.662286
 H         1.003584         2.854185         2.493558
 H         3.145456         1.836429         1.183240
 H        -0.682759        -1.569589         0.715578
 H        -0.216113        -0.912706        -0.822933
 H         1.116115        -1.764004        -0.240139
 H         1.444451        -0.958317         3.531312
