19
Iteration:  4984charge 0 multiplicity 1
 C        -1.155592         0.651799         2.381633
 C         0.162969         0.920100         1.684751
 C         0.911219         2.283739         1.459885
 C         2.187967         1.442012         1.215961
 O         1.844678         0.817383        -0.048990
 C         0.896912         0.024404         0.659453
 C         0.335873        -1.273841         0.146636
 C         1.566768         0.298536         2.072572
 O         2.032347        -0.473151         3.118861
 H        -0.974806         0.900775         3.403929
 H        -1.870791         1.347836         2.070796
 H        -1.511857        -0.391575         2.384410
 H         0.782533         2.963844         0.622996
 H         1.057134         2.904802         2.414993
 H         3.072564         2.045313         1.266559
 H        -0.282676        -1.157945        -0.732714
 H         1.255588        -2.030855        -0.034183
 H        -0.293587        -1.717619         1.004998
 H         2.414748        -1.282950         2.740189
