19
Iteration:  1821charge 0 multiplicity 1
 C        -1.189679         0.814070         2.372553
 C         0.158515         0.957277         1.653155
 C         0.872051         2.329480         1.544214
 C         2.180642         1.487516         1.264456
 O         1.869301         0.704637        -0.088951
 C         1.016163        -0.076199         0.676503
 C         0.404929        -1.328882         0.211745
 C         1.520262         0.243137         2.041251
 O         2.058404        -0.532432         2.988823
 H        -1.277333         0.899570         3.533613
 H        -1.859485         1.641077         2.059960
 H        -1.740397        -0.024371         2.011805
 H         0.598492         3.098354         0.694738
 H         0.776579         2.987135         2.459452
 H         3.266804         1.775044         1.374140
 H        -0.236772        -1.910699         0.999128
 H        -0.462433        -1.080565        -0.598367
 H         1.156354        -1.885121        -0.288946
 H         1.946156        -0.137272         3.891082
