19
Iteration:  3253charge 0 multiplicity 1
 C        -1.134443         0.662469         2.294398
 C         0.230180         0.903978         1.721589
 C         0.935735         2.252366         1.487899
 C         2.137524         1.393902         1.257819
 O         1.906343         0.686955        -0.054570
 C         0.955356        -0.079686         0.747740
 C         0.162929        -1.093982         0.089491
 C         1.538491         0.242204         2.034600
 O         2.117636        -0.299502         3.117538
 H        -1.367726         1.519599         2.961217
 H        -1.921230         0.754224         1.620382
 H        -1.128137        -0.389446         2.819157
 H         0.802676         2.847415         0.524171
 H         1.144925         2.685762         2.529753
 H         3.133388         1.649182         1.539199
 H        -0.469398        -1.514820         0.911840
 H        -0.457072        -0.718879        -0.693142
 H         0.772949        -1.925856        -0.285986
 H         1.763195        -1.231130         3.174290
