19
Iteration:  1172
 C        -1.134684         0.775870         2.381432
 C         0.158049         1.016028         1.782267
 C         0.925488         2.361573         1.575840
 C         2.201629         1.469212         1.242837
 O         1.903768         0.788102        -0.080409
 C         0.922336         0.064920         0.722811
 C         0.335097        -1.171500         0.134069
 C         1.520478         0.207325         2.036584
 O         1.995373        -0.790575         2.923533
 H        -1.574095         1.535307         3.046906
 H        -1.832135         0.691497         1.492185
 H        -1.040991        -0.225939         2.916480
 H         0.627930         2.900270         0.655416
 H         0.981027         2.857655         2.565213
 H         3.232327         1.703161         1.200584
 H        -0.078468        -1.619078         1.028505
 H        -0.410059        -0.971303        -0.597722
 H         1.034928        -1.907986        -0.373675
 H         2.091886        -0.367104         3.769320
