19
Iteration:  1069charge 0 multiplicity 1
 C        -1.119139         0.707927         2.458384
 C         0.163310         0.960076         1.749020
 C         1.046602         2.265080         1.590568
 C         2.222488         1.416598         1.219800
 O         1.843633         0.795582        -0.061601
 C         0.893209         0.069260         0.645440
 C         0.289685        -1.181037         0.005526
 C         1.488290         0.206868         2.003103
 O         2.037857        -0.600715         3.020193
 H        -1.290399         1.458587         3.265136
 H        -1.974935         0.638283         1.776128
 H        -1.026995        -0.245082         2.957077
 H         0.562938         3.019520         1.066665
 H         1.183086         2.737426         2.553095
 H         3.247288         1.919057         1.253611
 H        -0.340384        -1.761358         0.677226
 H        -0.302760        -0.849367        -0.822500
 H         0.983310        -1.837379        -0.298138
 H         1.603428        -0.295207         3.872914
