19
Iteration:   798
 C        -1.146987         0.757499         2.448956
 C         0.217428         1.019104         1.844102
 C         0.920550         2.321552         1.507678
 C         2.181104         1.466874         1.103298
 O         1.819076         0.792749        -0.052977
 C         1.022243        -0.086340         0.669635
 C         0.370238        -1.280539         0.121053
 C         1.548708         0.276412         2.021877
 O         1.982564        -0.613615         3.042023
 H        -1.851160         1.536117         2.131431
 H        -1.617932        -0.131046         1.974183
 H        -1.198745         0.695454         3.556146
 H         0.562807         2.796639         0.605081
 H         1.203147         2.997648         2.369927
 H         3.254243         1.770435         1.089737
 H        -0.244407        -1.971704         0.881665
 H        -0.308065        -0.906582        -0.687054
 H         1.109641        -1.743715        -0.432182
 H         1.467310        -0.363969         3.795524
