19
Iteration:  1635charge 0 multiplicity 1
 C        -1.193744         0.719425         2.306825
 C         0.130679         0.922548         1.648336
 C         0.912134         2.318842         1.542248
 C         2.211154         1.526977         1.280581
 O         1.924718         0.731365        -0.062325
 C         0.957648        -0.021402         0.672940
 C         0.325820        -1.346577         0.224533
 C         1.527265         0.278094         2.023571
 O         2.047569        -0.517676         3.028462
 H        -0.924504         1.146610         3.332376
 H        -1.974688         1.298750         1.781516
 H        -1.478580        -0.319830         2.377905
 H         0.505265         2.963218         0.692248
 H         0.910102         2.954561         2.429737
 H         3.176597         2.043141         1.268373
 H        -0.035428        -2.055814         1.012757
 H        -0.609652        -1.213047        -0.482610
 H         1.029283        -1.826733        -0.355207
 H         1.957287         0.053326         3.800332
