19
Iteration:  4742charge 0 multiplicity 1
 C        -1.096155         0.828688         2.474987
 C         0.178701         0.989683         1.729557
 C         0.843090         2.223197         1.378435
 C         2.251467         1.403550         1.153648
 O         1.719326         0.850553        -0.069587
 C         0.875197        -0.027799         0.751839
 C         0.532220        -1.322574         0.125097
 C         1.623400         0.301766         2.123005
 O         1.940931        -0.544758         3.090591
 H        -0.902127         1.056981         3.559914
 H        -1.980495         1.295223         1.996395
 H        -1.366618        -0.308380         2.355848
 H         0.652320         2.894624         0.531764
 H         0.762178         2.982352         2.307366
 H         3.134958         2.051398         1.094708
 H         0.004006        -1.150071        -0.819065
 H         1.545130        -1.907232         0.089861
 H        -0.140314        -1.885173         0.687859
 H         1.784314        -1.430923         2.734600
