19
Iteration:   912charge 0 multiplicity 1
 C        -1.250244         0.725508         2.226596
 C         0.267013         0.879348         1.892256
 C         0.919292         2.293485         1.522610
 C         2.215011         1.497866         1.114345
 O         1.766844         0.815323         0.005366
 C         0.949106        -0.032801         0.780490
 C         0.226223        -1.168208         0.107787
 C         1.698774         0.223094         2.051963
 O         2.147705        -0.629447         3.050420
 H        -1.663687        -0.272898         1.876187
 H        -1.402542         0.567705         3.345021
 H        -1.775688         1.699636         1.928089
 H         0.580944         2.737973         0.551599
 H         1.107092         2.943176         2.342220
 H         3.175161         2.016833         0.922861
 H        -0.676427        -1.432974         0.571855
 H        -0.246193        -0.491486        -0.649946
 H         0.683265        -2.180424        -0.348228
 H         1.852579        -0.344788         3.930342
