19
Iteration:  3154
 C        -1.073209         0.787343         2.411673
 C         0.193021         1.032212         1.684440
 C         0.952679         2.291142         1.489525
 C         2.200229         1.431088         1.216807
 O         1.897632         0.702249        -0.068531
 C         0.956781        -0.051962         0.683416
 C         0.380630        -1.309914         0.228579
 C         1.446665         0.328924         2.022232
 O         1.877680        -0.463805         3.023453
 H        -0.774028         0.937496         3.439641
 H        -1.909788         1.341275         2.147296
 H        -1.342119        -0.289382         2.597052
 H         0.493644         2.833762         0.627032
 H         0.863388         2.915526         2.420940
 H         3.195846         1.844360         1.289290
 H        -0.280480        -1.747642         0.940931
 H        -0.160535        -1.097904        -0.614242
 H         1.051709        -2.075575        -0.047690
 H         2.330229        -1.332440         2.786692
