19
Iteration:  2135charge 0 multiplicity 1
 C        -1.053985         0.714290         2.485521
 C         0.227226         0.983104         1.768860
 C         0.956071         2.298899         1.479206
 C         2.211011         1.483783         1.171124
 O         1.824895         0.764727        -0.074417
 C         0.884537         0.054886         0.685927
 C         0.400539        -1.251266         0.085936
 C         1.541523         0.231993         2.041092
 O         1.895202        -0.625729         3.029103
 H        -1.708935         1.380085         1.965403
 H        -1.397514        -0.379470         2.412661
 H        -1.125522         0.997763         3.561161
 H         0.633440         2.963459         0.656617
 H         1.065624         2.955590         2.400536
 H         3.264714         1.951707         1.084801
 H         0.092762        -1.901052         1.030706
 H        -0.495182        -1.176279        -0.524500
 H         1.192893        -1.819913        -0.547243
 H         1.509759        -0.145617         3.777027
