19
Iteration:  4099
 C        -1.176794         0.835223         2.373863
 C         0.226574         0.937109         1.735048
 C         0.854995         2.336198         1.444699
 C         2.207399         1.496498         1.258420
 O         1.870220         0.726711        -0.094796
 C         0.910209        -0.025461         0.713259
 C         0.334908        -1.281403         0.155305
 C         1.554276         0.222876         2.041637
 O         2.087176        -0.587245         3.033764
 H        -1.002765         0.946151         3.440621
 H        -2.001057         1.482173         2.017510
 H        -1.582838        -0.213014         2.293553
 H         0.597105         2.886980         0.545414
 H         0.837412         2.941474         2.308269
 H         3.137111         2.102448         1.294218
 H        -0.044604        -1.961887         0.976407
 H        -0.589443        -1.143341        -0.496274
 H         1.056546        -1.946533        -0.332111
 H         1.900677        -0.339368         3.964682
