19
Iteration:   634charge 0 multiplicity 1
 C        -0.996145         0.761245         2.503792
 C         0.201130         1.057963         1.678910
 C         0.941796         2.310391         1.383344
 C         2.185120         1.437669         1.012716
 O         1.736650         0.752845        -0.076477
 C         0.982281        -0.111205         0.786416
 C         0.534448        -1.329822         0.097729
 C         1.535433         0.366592         2.105146
 O         1.761871        -0.605305         3.138529
 H        -0.757120         0.372797         3.537096
 H        -1.441650         1.804919         2.642507
 H        -1.595618        -0.131949         2.116296
 H         0.619964         3.047881         0.683576
 H         1.434338         2.722114         2.311723
 H         2.972227         2.235562         0.830292
 H         0.013093        -2.112019         0.830134
 H        -0.202432        -0.989895        -0.695506
 H         1.274696        -1.779886        -0.419858
 H         1.644225        -0.206466         4.059439
