19
Iteration:  4177
 C        -1.040422         0.637113         2.461296
 C         0.221971         0.926576         1.724499
 C         0.941574         2.300541         1.529369
 C         2.273174         1.497234         1.068434
 O         1.754286         0.748157        -0.052070
 C         0.942475        -0.073016         0.724807
 C         0.294992        -1.221226         0.031527
 C         1.660622         0.265284         2.014303
 O         1.870002        -0.476123         3.170748
 H        -1.243267         1.320420         3.271313
 H        -1.894070         0.766234         1.758984
 H        -1.119516        -0.366939         2.831434
 H         0.689386         2.902940         0.658265
 H         1.121884         2.957587         2.333056
 H         3.260002         1.930112         0.984053
 H        -0.607401        -1.654532         0.513117
 H        -0.064512        -1.015883        -0.982841
 H         0.969534        -2.133966        -0.101441
 H         1.921929         0.191398         3.895560
