19
Iteration:  1770
 C        -1.048951         0.777511         2.388798
 C         0.208739         1.001591         1.708256
 C         0.928682         2.372609         1.393532
 C         2.149560         1.486452         1.096015
 O         1.739009         0.783847        -0.050398
 C         1.018323        -0.059543         0.795027
 C         0.581647        -1.340384         0.207106
 C         1.547719         0.288531         2.059690
 O         1.779385        -0.650154         3.023504
 H        -0.828943         0.487179         3.444203
 H        -1.609503         1.659812         2.700636
 H        -1.694475        -0.068282         2.140662
 H         0.577961         3.014777         0.582618
 H         1.100642         3.010448         2.224117
 H         3.152498         1.872163         1.204731
 H        -0.054912        -1.876211         0.892766
 H        -0.142800        -1.154471        -0.559100
 H         1.422818        -1.913335        -0.182799
 H         1.703254        -0.253601         3.902048
