19
Iteration:   459
 C        -1.069234         0.750259         2.494294
 C         0.204187         0.942684         1.721317
 C         0.928128         2.348401         1.388791
 C         2.156630         1.504925         1.185749
 O         1.910923         0.781826        -0.017704
 C         0.946612        -0.002106         0.679771
 C         0.384805        -1.374641         0.213881
 C         1.538429         0.352333         2.019324
 O         1.902418        -0.599209         2.955283
 H        -1.305623         1.713148         2.969860
 H        -1.937361         0.532111         1.774265
 H        -1.050759        -0.132115         3.196616
 H         0.605256         2.753156         0.407276
 H         0.991964         3.142816         2.219564
 H         3.212290         1.821319         1.401806
 H         0.074643        -1.929307         1.238276
 H        -0.578643        -1.312157        -0.443397
 H         1.099234        -2.057724        -0.224891
 H         1.362830        -0.470849         3.722603
