19
Iteration:  2847charge 0 multiplicity 1
 C        -1.132183         0.691945         2.225073
 C         0.253726         1.024837         1.825160
 C         0.952709         2.263655         1.444881
 C         2.146433         1.352041         1.244742
 O         1.886302         0.690025        -0.045458
 C         0.847724         0.023188         0.739669
 C         0.130355        -1.214551         0.138311
 C         1.542138         0.247889         2.063191
 O         2.163705        -0.364726         3.161047
 H        -1.458081         0.769966         3.256675
 H        -1.821593         1.228554         1.504524
 H        -1.319126        -0.376957         1.860452
 H         0.606909         2.939075         0.593630
 H         0.989969         2.922088         2.327323
 H         3.199196         1.739344         1.415625
 H        -0.462260        -1.933551         0.748364
 H        -0.420577        -0.818969        -0.795360
 H         1.010511        -1.843863        -0.226286
 H         2.546809        -1.247039         3.014753
