19
Iteration:  2518
 C        -1.083595         0.825800         2.470645
 C         0.185456         0.983100         1.704253
 C         0.908077         2.255054         1.541304
 C         2.213012         1.467399         1.163984
 O         1.848669         0.715308        -0.094279
 C         0.874679         0.005524         0.718982
 C         0.410397        -1.235061         0.083755
 C         1.526239         0.241276         2.012526
 O         1.950240        -0.604588         3.054605
 H        -1.659154         1.733139         2.302456
 H        -1.793804         0.022471         2.042974
 H        -0.937665         0.673421         3.582397
 H         0.450929         2.933581         0.792967
 H         1.169715         2.775236         2.511643
 H         3.203844         1.843878         1.074878
 H        -0.163951        -1.941890         0.851990
 H        -0.170838        -1.015309        -0.877869
 H         1.271938        -1.926856        -0.203834
 H         1.990764        -0.149065         3.914764
