19
Iteration:  4713
 C        -1.154934         0.746520         2.493840
 C         0.209227         0.967697         1.811861
 C         0.827343         2.380260         1.494268
 C         2.163350         1.468790         1.101241
 O         1.914327         0.751435        -0.071412
 C         0.942810        -0.026508         0.665300
 C         0.443789        -1.376565         0.169381
 C         1.540396         0.316532         2.009576
 O         1.907442        -0.520078         3.033009
 H        -1.078413         1.131889         3.508060
 H        -1.926095         1.275782         1.910899
 H        -1.403443        -0.319436         2.665284
 H         0.527414         3.233635         0.847625
 H         1.140478         2.681327         2.471973
 H         3.079813         2.041943         1.064676
 H         0.290536        -1.380938        -0.928389
 H         1.122861        -2.083239         0.485284
 H        -0.581075        -1.631836         0.743658
 H         2.569051        -1.124602         2.607141
