19
Iteration:  4773charge 0 multiplicity 1
 C        -1.136678         0.772725         2.423343
 C         0.207883         1.047648         1.804641
 C         0.861344         2.344872         1.532485
 C         2.157206         1.433021         1.177263
 O         1.868550         0.701963        -0.094562
 C         0.948690        -0.045211         0.709165
 C         0.395427        -1.334541         0.098664
 C         1.512488         0.253174         2.019383
 O         1.988784        -0.452471         3.092244
 H        -1.315285         1.131807         3.445530
 H        -1.987616         1.250586         1.966071
 H        -1.236423        -0.316817         2.397185
 H         0.566582         2.990197         0.713920
 H         1.044689         2.959148         2.477237
 H         3.061555         2.077192         1.176984
 H        -0.373262        -1.317170        -0.683698
 H         1.180094        -1.902632        -0.614636
 H         0.079868        -1.998866         0.851407
 H         2.461649        -1.276754         2.841307
