19
Iteration:  3076
 C        -1.164377         0.807719         2.328643
 C         0.180854         0.946508         1.697067
 C         0.967222         2.189907         1.495894
 C         2.207882         1.488987         1.148693
 O         1.890679         0.680795        -0.049576
 C         0.885654        -0.038304         0.725266
 C         0.230751        -1.241912         0.106295
 C         1.592769         0.290639         2.095182
 O         2.000364        -0.476020         3.172903
 H        -1.300007         1.272518         3.242433
 H        -1.903442         1.229309         1.656891
 H        -1.381461        -0.270529         2.339211
 H         0.518625         2.872381         0.720384
 H         1.057050         2.720248         2.471477
 H         3.234288         2.028313         1.024098
 H        -0.145866        -1.861478         0.844561
 H        -0.546157        -1.038654        -0.526426
 H         0.960180        -1.803674        -0.455278
 H         2.997019        -0.506549         3.260311
