19
Iteration:  1509
 C        -1.251334         0.639301         2.246218
 C         0.181640         0.919158         1.778731
 C         0.918697         2.270792         1.460701
 C         2.227195         1.430446         1.215897
 O         1.820556         0.702939        -0.012677
 C         0.925447        -0.093191         0.786506
 C         0.252184        -1.114222         0.040314
 C         1.611990         0.273115         2.047959
 O         2.159988        -0.453187         3.137401
 H        -1.767066         1.565484         2.095121
 H        -1.889706        -0.112558         1.753546
 H        -1.086916         0.514349         3.368870
 H         0.432097         2.886368         0.677680
 H         1.135640         2.972383         2.368376
 H         3.321251         1.677924         1.137371
 H        -0.655442        -1.551345         0.531282
 H        -0.093465        -0.681265        -0.854721
 H         1.025431        -1.897932        -0.296088
 H         2.064011        -0.037644         4.020880
