19
Iteration:  4855
 C        -1.138848         0.601464         2.258204
 C         0.263082         0.994836         1.826453
 C         0.853527         2.300948         1.540214
 C         2.205192         1.498548         1.139445
 O         1.854723         0.640736        -0.043907
 C         0.938863        -0.111473         0.827448
 C         0.203395        -1.167754         0.039123
 C         1.615526         0.297800         2.052390
 O         2.070073        -0.363164         3.127430
 H        -1.514921         1.252490         3.115409
 H        -1.784240         0.554914         1.323395
 H        -1.137135        -0.461119         2.644967
 H         0.272724         3.055898         0.822219
 H         1.157109         2.879561         2.465490
 H         3.243625         1.932917         1.213892
 H        -0.516131        -0.636032        -0.560207
 H         0.828254        -1.671818        -0.527217
 H        -0.447766        -1.797180         0.765984
 H         2.376499        -1.275648         2.917963
