19
Iteration:  4355charge 0 multiplicity 1
 C        -1.039014         0.759739         2.516291
 C         0.227634         0.952945         1.756300
 C         0.787920         2.242344         1.362318
 C         2.175927         1.596640         1.108292
 O         1.949492         0.691261        -0.088825
 C         1.030127        -0.019400         0.759234
 C         0.329911        -1.207020         0.034955
 C         1.642787         0.277631         2.102169
 O         1.815335        -0.618894         3.121141
 H        -0.866661         1.090901         3.544668
 H        -1.888905         1.253838         2.148327
 H        -1.300764        -0.253045         2.646565
 H         0.392411         2.615568         0.402184
 H         0.644059         2.865963         2.215539
 H         3.228407         2.017523         1.146196
 H        -0.171374        -1.937828         0.702335
 H        -0.439704        -0.855413        -0.604479
 H         1.049773        -1.738064        -0.704225
 H         1.813353        -0.214455         4.018567
