19
Iteration:   943charge 0 multiplicity 1
 C        -1.190446         0.744532         2.209778
 C         0.224107         0.895742         1.798459
 C         0.896832         2.313196         1.664466
 C         2.211076         1.403775         1.184876
 O         1.834233         0.765376         0.004655
 C         0.867295         0.045494         0.665130
 C         0.236275        -1.183918         0.141046
 C         1.539687         0.166653         2.050451
 O         2.233725        -0.527518         2.978851
 H        -1.579837        -0.225309         2.512335
 H        -1.144821         1.396576         3.097323
 H        -1.910382         1.104152         1.430730
 H         0.504106         3.106639         0.928642
 H         1.068662         2.764904         2.645769
 H         3.212471         1.706920         1.137675
 H        -0.532771        -1.515002         0.864271
 H        -0.367437        -0.989404        -0.776233
 H         0.925114        -1.986452        -0.332358
 H         1.888291        -0.554326         3.892759
