19
Iteration:   114
 C        -1.150849         0.724517         2.220892
 C         0.284244         0.925834         1.736615
 C         0.841936         2.316264         1.415011
 C         2.160493         1.510159         1.091451
 O         1.845540         0.685507         0.016528
 C         0.961567        -0.059725         0.847238
 C         0.223562        -1.275429         0.153205
 C         1.702881         0.335575         2.148932
 O         2.026341        -0.537186         3.069755
 H        -1.334096         1.348291         3.152398
 H        -1.822570         1.063518         1.417965
 H        -1.416956        -0.347573         2.552559
 H         0.384102         3.073958         0.700073
 H         0.960517         2.961225         2.341921
 H         3.171944         1.946603         0.978679
 H        -0.566049        -1.891341         0.767881
 H        -0.268060        -0.977654        -0.738351
 H         0.953938        -2.051604        -0.095415
 H         2.264980         0.011573         3.893681
