19
Iteration:  3017
 C        -1.181784         0.658506         2.226964
 C         0.284392         0.936002         1.812535
 C         0.946444         2.287774         1.485040
 C         2.179329         1.472367         1.091660
 O         1.919678         0.661784        -0.036087
 C         0.875549        -0.027066         0.802987
 C         0.093695        -1.172461         0.050176
 C         1.625447         0.291256         2.104465
 O         2.092166        -0.441471         3.240613
 H        -1.624117         1.599493         2.634638
 H        -1.700188         0.473448         1.224566
 H        -1.440810        -0.128402         2.943265
 H         0.307333         2.903443         0.683448
 H         1.121641         2.887459         2.500512
 H         3.253045         1.867971         1.024340
 H        -0.714752        -1.627221         0.744279
 H        -0.355147        -0.676279        -0.893072
 H         0.816891        -1.969850        -0.246979
 H         2.834501        -0.968587         2.950367
