19
Iteration:  1584
 C        -1.088692         0.728492         2.379513
 C         0.248397         1.020853         1.750107
 C         0.952348         2.443456         1.381202
 C         2.179330         1.527610         1.097335
 O         1.771117         0.814240        -0.027630
 C         0.875825        -0.007479         0.809775
 C         0.547928        -1.342884         0.222810
 C         1.635061         0.326019         2.079522
 O         1.800010        -0.769183         2.989734
 H        -1.565498         1.570426         2.804323
 H        -1.707180         0.315227         1.582689
 H        -0.885777        -0.075376         3.110731
 H         0.427416         3.089150         0.680170
 H         0.820766         2.922590         2.291191
 H         3.228059         1.934667         0.924045
 H        -0.027641        -1.894484         1.012819
 H        -0.119593        -1.395974        -0.616540
 H         1.470494        -1.840513         0.012822
 H         1.571727        -0.457674         3.866220
