19
Iteration:  2022
 C        -1.168061         0.703776         2.333106
 C         0.169942         0.947729         1.700895
 C         0.921040         2.332835         1.564192
 C         2.174030         1.529979         1.231226
 O         1.910928         0.724987        -0.032514
 C         0.917592         0.055018         0.710484
 C         0.249448        -1.175168         0.196024
 C         1.565370         0.205563         1.998269
 O         2.077206        -0.660385         2.971614
 H        -2.056084         0.607819         1.677196
 H        -1.112640        -0.179665         2.944486
 H        -1.377355         1.540649         3.011130
 H         0.578426         3.049810         0.757980
 H         1.016869         2.793600         2.569371
 H         3.193647         2.023264         1.088020
 H        -0.416544        -1.704942         0.835664
 H        -0.167435        -0.975912        -0.824559
 H         1.033093        -2.000043         0.016066
 H         2.107837        -0.148858         3.792260
