19
Iteration:  3932charge 0 multiplicity 1
 C        -0.981661         0.672679         2.493195
 C         0.187344         0.946725         1.666994
 C         0.962906         2.266574         1.511952
 C         2.186794         1.443129         1.130012
 O         1.842836         0.753850        -0.081772
 C         0.878991        -0.034320         0.708290
 C         0.381450        -1.278236         0.050342
 C         1.532716         0.311712         1.998776
 O         1.900885        -0.445281         3.105829
 H        -0.939357         1.105590         3.498832
 H        -2.064479         0.979366         2.216252
 H        -1.287222        -0.461114         2.670014
 H         0.604141         3.088036         0.931640
 H         1.355608         2.614547         2.481026
 H         3.185755         1.859151         1.340626
 H        -0.427651        -1.759892         0.596423
 H        -0.175287        -0.860871        -0.893272
 H         1.149009        -2.079277        -0.140731
 H         1.475570        -0.117541         3.899188
