19
Iteration:  2951charge 0 multiplicity 1
 C        -0.979421         0.730152         2.486080
 C         0.200973         1.020765         1.700391
 C         0.954117         2.421341         1.460647
 C         2.151437         1.450245         1.152199
 O         1.891872         0.635792        -0.038016
 C         0.855484        -0.013951         0.659983
 C         0.421812        -1.302239         0.158335
 C         1.444499         0.274785         1.988344
 O         1.836618        -0.468399         3.104497
 H        -0.959923         1.188239         3.497747
 H        -1.831583         1.134503         1.887320
 H        -1.054716        -0.313723         2.717860
 H         0.508765         3.124788         0.647096
 H         1.227788         2.750607         2.519136
 H         3.161711         1.818606         1.444514
 H        -0.179088        -1.895784         0.936317
 H        -0.253807        -1.191292        -0.756912
 H         1.332895        -1.810535        -0.187547
 H         2.353104        -1.209276         2.667948
