19
Iteration:  3286charge 0 multiplicity 1
 C        -1.071442         0.717837         2.349685
 C         0.267619         0.941805         1.797538
 C         0.921363         2.288676         1.388656
 C         2.138623         1.467493         1.114188
 O         1.890959         0.722878        -0.045006
 C         0.898500        -0.011101         0.724174
 C         0.223857        -1.202785         0.017052
 C         1.619265         0.276891         2.081357
 O         2.009307        -0.529128         3.203867
 H        -1.185447         1.211641         3.366274
 H        -1.778504         0.855198         1.590981
 H        -1.274007        -0.415349         2.623738
 H         0.573275         3.083744         0.610508
 H         1.121276         3.103036         2.267634
 H         3.114145         1.866744         1.287054
 H         0.055590        -1.829014         0.954692
 H        -0.721872        -1.069744        -0.487450
 H         1.022706        -1.718726        -0.516947
 H         1.260453        -0.690958         3.799362
