19
Iteration:  2772
 C        -1.035462         0.697902         2.500971
 C         0.147999         1.032459         1.674449
 C         1.024564         2.333834         1.448561
 C         2.223463         1.425032         1.259228
 O         1.867055         0.770375        -0.067430
 C         0.838317        -0.066036         0.721666
 C         0.315572        -1.303480         0.045003
 C         1.552046         0.233126         2.015642
 O         1.852471        -0.425346         3.115019
 H        -1.665639         1.576052         2.744631
 H        -1.723827        -0.001990         2.026157
 H        -0.624498         0.287321         3.461848
 H         0.821073         2.988669         0.526050
 H         1.133452         2.901875         2.388070
 H         3.159399         1.706185         1.361032
 H        -0.151265        -1.951965         0.802398
 H        -0.424713        -1.025870        -0.777820
 H         1.148566        -1.953153        -0.358312
 H         2.565220        -1.030693         2.789803
