19
Iteration:  1830charge 0 multiplicity 1
 C        -1.234088         0.816178         2.289579
 C         0.165272         0.899610         1.660410
 C         0.915046         2.297959         1.479018
 C         2.211127         1.529833         1.311588
 O         1.858301         0.737751        -0.058994
 C         0.933987        -0.089354         0.754644
 C         0.300684        -1.355084         0.144240
 C         1.577905         0.343884         2.031349
 O         2.128606        -0.555177         3.025624
 H        -1.023630         0.883121         3.355360
 H        -1.968575         1.511928         1.876912
 H        -1.691293        -0.184495         2.125028
 H         0.561177         3.098477         0.801390
 H         1.020980         2.657359         2.564243
 H         3.217904         2.027835         1.508350
 H        -0.174616        -1.826991         1.057946
 H        -0.447273        -1.017926        -0.630711
 H         0.954704        -2.119935        -0.295630
 H         1.886433        -0.028952         3.822830
