19
Iteration:  1039
 C        -0.973455         0.661730         2.517249
 C         0.224525         0.998135         1.770651
 C         0.964597         2.332172         1.519594
 C         2.217256         1.465352         1.271934
 O         1.915578         0.819799        -0.052383
 C         0.922622         0.022045         0.650825
 C         0.309212        -1.223587         0.078625
 C         1.474988         0.254202         1.961761
 O         1.855470        -0.662985         2.948411
 H        -0.793395         0.917810         3.577608
 H        -1.881038         1.221919         2.103750
 H        -1.227362        -0.429483         2.541171
 H         0.434414         2.999282         0.737681
 H         0.968654         3.035492         2.424282
 H         3.202280         1.914600         1.255167
 H        -0.158549        -2.006473         0.835907
 H        -0.515625        -0.927734        -0.539614
 H         1.081673        -1.767308        -0.557237
 H         1.436089        -0.347403         3.738330
