19
Iteration:  3508charge 0 multiplicity 1
 C        -1.054028         0.641515         2.362050
 C         0.299428         0.997274         1.848731
 C         0.857974         2.347253         1.442176
 C         2.126183         1.461605         1.140571
 O         1.879637         0.730033         0.003167
 C         0.947158        -0.085576         0.714953
 C         0.282008        -1.233563         0.033485
 C         1.590366         0.257404         2.033871
 O         1.950454        -0.495276         3.104578
 H        -1.427945         1.422784         3.103111
 H        -1.791624         0.706752         1.641077
 H        -1.009273        -0.342531         2.829391
 H         0.590660         2.980652         0.600529
 H         1.119072         2.992771         2.325703
 H         3.209650         1.688430         1.148859
 H        -0.135861        -1.836863         0.791744
 H        -0.421209        -0.820373        -0.740495
 H         1.026648        -1.764343        -0.548247
 H         1.530088        -0.174569         3.925992
