19
Iteration:  4145charge 0 multiplicity 1
 C        -0.986295         0.651873         2.503316
 C         0.237958         0.980652         1.717827
 C         0.913026         2.371514         1.530672
 C         2.169020         1.443621         1.100907
 O         1.824438         0.721600        -0.098701
 C         0.960263        -0.025662         0.690452
 C         0.333990        -1.227810         0.067892
 C         1.582523         0.255558         1.934439
 O         1.866516        -0.497825         3.180977
 H        -0.797834         1.105076         3.527226
 H        -1.844842         1.072381         1.916749
 H        -1.121830        -0.414874         2.571595
 H         0.533016         2.889511         0.659342
 H         1.080905         2.952113         2.356303
 H         3.229204         1.656507         1.050891
 H        -0.275076        -1.780703         0.826165
 H        -0.243530        -1.071017        -0.836405
 H         1.180230        -2.022383        -0.046071
 H         1.235285        -0.120248         3.817592
