19
Iteration:  2119charge 0 multiplicity 1
 C        -1.101897         0.748261         2.376688
 C         0.268332         0.985564         1.772158
 C         0.925716         2.326327         1.581712
 C         2.188518         1.402785         1.209151
 O         1.888279         0.837880        -0.096885
 C         0.866462        -0.048210         0.644197
 C         0.257734        -1.297119         0.089632
 C         1.529632         0.255441         1.998434
 O         2.002302        -0.552490         3.076588
 H        -2.101983         1.054464         1.831273
 H        -1.252479        -0.304606         2.551582
 H        -1.043919         1.289157         3.333684
 H         0.513670         2.826192         0.693054
 H         1.103789         2.827092         2.526647
 H         3.256021         1.687009         1.307792
 H         0.124423        -2.026464         0.814877
 H        -0.538425        -1.077632        -0.670273
 H         1.096153        -1.761082        -0.415697
 H         1.938241        -0.311860         3.991620
