19
Iteration:   961charge 0 multiplicity 1
 C        -1.259610         0.777924         2.325285
 C         0.134005         0.988124         1.747991
 C         1.012787         2.234376         1.608729
 C         2.223999         1.391403         1.312470
 O         1.844444         0.846993        -0.093685
 C         0.867080        -0.037187         0.707921
 C         0.246101        -1.227365         0.104009
 C         1.560342         0.233717         1.983272
 O         2.200167        -0.553509         2.972675
 H        -1.215078        -0.174881         2.854135
 H        -1.633389         1.495393         3.067102
 H        -1.922752         0.575663         1.497123
 H         0.849949         2.970859         0.849618
 H         1.162453         2.637113         2.660177
 H         3.228926         1.789584         1.556894
 H        -0.376715        -1.836681         0.893827
 H        -0.425278        -1.139763        -0.725091
 H         1.060556        -1.762510        -0.302459
 H         1.706779        -0.337314         3.809305
