19
Iteration:  3407charge 0 multiplicity 1
 C        -1.145874         0.732884         2.235077
 C         0.245235         0.928000         1.799216
 C         0.946894         2.321972         1.454497
 C         2.165000         1.478449         1.212616
 O         1.830041         0.715458        -0.058524
 C         0.848236        -0.046195         0.797618
 C         0.310153        -1.210819         0.150342
 C         1.553618         0.280619         2.106295
 O         2.129008        -0.504173         3.084162
 H        -1.442776         1.192788         3.246718
 H        -1.763524         1.008164         1.415082
 H        -1.392949        -0.415161         2.426750
 H         0.481107         2.822442         0.524878
 H         0.824016         3.059766         2.365527
 H         3.127995         1.946264         1.174812
 H        -0.682742        -1.439292         0.661563
 H         0.081094        -0.777920        -0.890983
 H         1.139511        -1.947349         0.225553
 H         1.770797        -1.404078         3.088287
