19
Iteration:  4124charge 0 multiplicity 1
 C        -1.050970         0.704113         2.517542
 C         0.173290         0.965284         1.702736
 C         0.927545         2.283598         1.411629
 C         2.245645         1.474058         1.232079
 O         1.903855         0.737941        -0.085593
 C         0.891240        -0.001038         0.704203
 C         0.334347        -1.316869         0.121684
 C         1.479188         0.320291         1.995722
 O         1.964625        -0.490704         3.037165
 H        -0.869072         0.927445         3.641278
 H        -1.910191         1.268143         2.068838
 H        -1.356092        -0.333387         2.427943
 H         0.688788         3.002026         0.631785
 H         1.081767         2.761059         2.339206
 H         3.184497         1.987300         1.380058
 H        -0.255280        -1.922969         0.805267
 H        -0.386025        -1.000669        -0.593070
 H         1.050273        -2.069243        -0.320553
 H         1.433731        -0.483748         3.868034
