19
Iteration:  1254
 C        -1.107868         0.685710         2.440806
 C         0.198603         0.940145         1.742353
 C         0.922377         2.323348         1.562537
 C         2.302832         1.424719         1.325774
 O         1.916267         0.762459        -0.035373
 C         0.942161        -0.011209         0.638848
 C         0.219764        -1.233650        -0.023372
 C         1.506330         0.260355         2.016597
 O         1.997951        -0.508701         3.000763
 H        -0.855024         0.432727         3.496926
 H        -1.728821         1.562187         2.510926
 H        -1.754944        -0.053047         2.048301
 H         0.494081         3.067709         0.903244
 H         0.983461         2.884331         2.468482
 H         3.386326         1.747347         1.164216
 H        -0.153549        -1.988362         0.690594
 H        -0.689243        -1.073828        -0.719248
 H         0.998851        -1.679677        -0.531025
 H         1.446887        -0.390074         3.783126
