19
Iteration:  2112charge 0 multiplicity 1
 C        -1.146917         0.774892         2.367351
 C         0.212483         0.980581         1.713338
 C         0.933546         2.281006         1.571378
 C         2.145801         1.412185         1.243795
 O         1.882056         0.830596        -0.061792
 C         0.897856        -0.053599         0.684329
 C         0.243373        -1.270681         0.088877
 C         1.611419         0.217037         2.000131
 O         2.047844        -0.539896         3.049714
 H        -2.011152         0.986920         1.680433
 H        -1.084424        -0.318311         2.660510
 H        -1.360284         1.302321         3.327189
 H         0.612751         3.070390         0.834382
 H         1.156117         2.793586         2.563277
 H         3.317409         1.562026         1.239539
 H        -0.140103        -2.067518         0.880356
 H        -0.535627        -1.006808        -0.583395
 H         1.049188        -1.807337        -0.612898
 H         1.907613        -0.020415         3.877745
