19
Iteration:  2929
 C        -1.127090         0.807596         2.498052
 C         0.188484         1.008755         1.689345
 C         0.974978         2.292248         1.414148
 C         2.270938         1.494939         1.121638
 O         1.819038         0.747694        -0.093523
 C         0.927563        -0.041804         0.743313
 C         0.449437        -1.347042         0.172197
 C         1.579554         0.319916         2.063861
 O         1.775753        -0.562105         3.083612
 H        -0.929872         0.961286         3.585091
 H        -1.950781         1.490711         2.212331
 H        -1.409864        -0.222204         2.512947
 H         0.450729         2.794690         0.531032
 H         0.983628         2.742509         2.451210
 H         3.261909         1.998957         1.113524
 H        -0.189439        -1.953778         0.889911
 H        -0.286237        -1.135401        -0.675041
 H         1.274936        -1.907841        -0.270471
 H         2.660891        -0.907637         3.084744
