19
Iteration:  4723
 C        -1.073578         0.767108         2.472512
 C         0.237421         0.979704         1.796844
 C         0.886650         2.397941         1.460379
 C         2.085129         1.555586         1.157047
 O         1.820099         0.735754        -0.074920
 C         0.933563        -0.046271         0.646143
 C         0.499192        -1.369783         0.184213
 C         1.541123         0.279857         2.041341
 O         1.922216        -0.555064         3.057067
 H        -0.938731         1.225051         3.481456
 H        -1.899052         1.362178         1.987274
 H        -1.512778        -0.304881         2.519836
 H         0.411391         3.115270         0.718208
 H         0.949343         3.038651         2.401526
 H         3.115535         1.882443         1.190117
 H         0.260305        -1.330170        -0.905614
 H         1.274113        -2.070715         0.188478
 H        -0.465836        -1.886314         0.584192
 H         2.169325        -1.444386         2.729460
