19
Iteration:  1048charge 0 multiplicity 1
 C        -0.992916         0.654425         2.542505
 C         0.212261         0.943191         1.697039
 C         0.922497         2.383675         1.605943
 C         2.216874         1.417784         1.199375
 O         1.948686         0.803116        -0.042461
 C         0.837570         0.043565         0.670587
 C         0.286439        -1.208176         0.047494
 C         1.539044         0.260016         1.978778
 O         1.891021        -0.618343         2.944018
 H        -1.001256         1.147636         3.544201
 H        -1.838964         1.087855         1.951221
 H        -1.211916        -0.409288         2.611777
 H         0.711631         2.915503         0.699899
 H         0.909374         3.035501         2.515340
 H         3.287504         1.618199         1.466941
 H        -0.074622        -1.902875         0.867470
 H        -0.440539        -1.011638        -0.675496
 H         1.066333        -1.705444        -0.371606
 H         1.455534        -0.423053         3.764118
