19
Iteration:  3355charge 0 multiplicity 1
 C        -1.166449         0.839168         2.393992
 C         0.217564         0.947063         1.721257
 C         0.896292         2.284559         1.505080
 C         2.165109         1.381301         1.208063
 O         1.895042         0.747897        -0.039535
 C         0.911103         0.026640         0.648207
 C         0.415085        -1.311046         0.218600
 C         1.539703         0.273794         1.977749
 O         1.912423        -0.509074         3.029117
 H        -1.086323         0.930480         3.541343
 H        -1.899753         1.429612         1.851295
 H        -1.550746        -0.157793         2.197299
 H         0.337331         2.974179         0.810881
 H         1.110925         2.841127         2.515497
 H         3.195325         1.740883         1.217262
 H         0.169471        -1.767744         1.128550
 H        -0.483923        -1.289366        -0.443830
 H         1.283262        -1.786856        -0.137876
 H         2.816013        -0.788502         3.115700
