19
Iteration:   336charge 0 multiplicity 1
 C        -1.193141         0.776237         2.169485
 C         0.188092         1.049991         1.984983
 C         0.842768         2.239362         1.428035
 C         2.101096         1.478285         1.137994
 O         1.848251         0.712046        -0.048354
 C         1.024913        -0.153169         0.777996
 C         0.265308        -1.234734         0.164080
 C         1.569103         0.269210         2.062353
 O         2.218975        -0.434960         3.140776
 H        -1.646894         1.393676         3.030095
 H        -1.556279         1.055097         1.149090
 H        -1.438432        -0.256682         2.284270
 H         0.229156         2.818393         0.653079
 H         1.170675         2.810336         2.320381
 H         3.068852         1.769514         1.108584
 H        -0.480829        -1.646740         0.758365
 H        -0.273320        -0.799424        -0.798923
 H         1.002611        -2.073043        -0.114052
 H         1.840863        -1.358268         3.153436
