19
Iteration:  2813charge 0 multiplicity 1
 C        -1.177027         0.791295         2.332317
 C         0.241742         0.889262         1.758847
 C         0.914012         2.224891         1.446247
 C         2.166200         1.464804         1.097824
 O         1.851284         0.752802        -0.134795
 C         1.034432        -0.148323         0.774273
 C         0.205012        -1.146068         0.116214
 C         1.664888         0.262849         2.107024
 O         1.981273        -0.484106         3.246184
 H        -1.510512         1.543513         3.014387
 H        -1.935359         0.921687         1.456302
 H        -1.196232        -0.252530         2.801957
 H         0.481012         2.917927         0.692745
 H         0.992711         2.600529         2.506640
 H         3.156697         2.177783         1.154158
 H        -0.594065        -1.650932         0.770543
 H        -0.382053        -0.610286        -0.693194
 H         0.813875        -1.836796        -0.538409
 H         2.822921        -0.934446         3.176543
