19
Iteration:  3032charge 0 multiplicity 1
 C        -1.235382         0.697629         2.195470
 C         0.223339         0.971558         1.888359
 C         0.946779         2.249216         1.451354
 C         2.222989         1.371958         1.211751
 O         1.848603         0.673673        -0.053456
 C         1.001967        -0.125210         0.744732
 C         0.144525        -1.107383         0.108816
 C         1.536056         0.276028         2.087869
 O         2.108599        -0.405733         3.144001
 H        -1.688488         1.463950         2.733992
 H        -1.914497         0.451247         1.385081
 H        -1.262743        -0.202268         2.812546
 H         0.773015         2.981506         0.723861
 H         1.167213         2.907969         2.301355
 H         3.264819         1.899420         1.309396
 H        -0.553276        -1.496574         0.756704
 H        -0.380943        -0.699983        -0.659063
 H         0.665236        -1.951857        -0.305147
 H         3.090431        -0.406418         2.951240
