19
Iteration:   883charge 0 multiplicity 1
 C        -1.076157         0.698245         2.371058
 C         0.230222         0.969346         1.756043
 C         0.906537         2.321961         1.542643
 C         2.147739         1.387924         1.239698
 O         1.865522         0.745812        -0.076179
 C         0.835933         0.022046         0.689174
 C         0.307235        -1.206811         0.091888
 C         1.525783         0.293548         2.023210
 O         2.042946        -0.603709         3.037942
 H        -1.638326        -0.023039         1.768955
 H        -0.850570         0.189507         3.313952
 H        -1.689147         1.533234         2.622831
 H         0.677625         2.976802         0.717486
 H         1.135803         2.954007         2.447543
 H         3.227737         1.850628         1.271322
 H        -0.439024        -1.692015         0.753987
 H        -0.296704        -0.689349        -0.689490
 H         0.977073        -1.908323        -0.276397
 H         2.388760        -0.063759         3.821761
