19
Iteration:  3323
 C        -1.137205         0.743441         2.421147
 C         0.216675         0.944553         1.665672
 C         1.022842         2.375314         1.478229
 C         2.171323         1.447443         1.196534
 O         1.807708         0.790133        -0.047357
 C         0.937408        -0.093248         0.702327
 C         0.382195        -1.356794         0.127431
 C         1.568044         0.337077         2.028882
 O         1.854557        -0.536626         3.080280
 H        -1.172440         1.123379         3.492878
 H        -1.968758         1.358799         2.011926
 H        -1.349494        -0.277193         2.383054
 H         0.700953         3.027934         0.714027
 H         1.316341         2.728445         2.445090
 H         3.212595         1.825385         1.127085
 H         0.305554        -2.098086         0.845470
 H        -0.575075        -1.295000        -0.450640
 H         1.058365        -1.773222        -0.597015
 H         2.489182        -0.206875         3.764590
