19
Iteration:   242
 C        -1.030631         0.804078         2.472312
 C         0.198894         0.957834         1.615301
 C         0.909614         2.349950         1.361921
 C         2.211068         1.513452         1.075813
 O         1.789761         0.674158        -0.064893
 C         0.939724        -0.018228         0.727262
 C         0.477525        -1.285729         0.197107
 C         1.500922         0.277262         2.100955
 O         1.867446        -0.613063         3.139543
 H        -0.759568         1.050555         3.489906
 H        -1.894962         1.455316         2.186295
 H        -1.391777        -0.276411         2.420769
 H         0.622513         2.940496         0.532772
 H         0.986073         2.924528         2.293750
 H         3.267003         2.049168         1.033453
 H         0.204614        -2.175615         0.922817
 H        -0.314858        -1.148077        -0.545390
 H         1.335606        -1.570736        -0.373555
 H         1.496715        -0.174550         3.942053
