19
Iteration:   121charge 0 multiplicity 1
 C        -1.156659         0.715941         2.183821
 C         0.278133         0.950661         1.828359
 C         0.867137         2.292435         1.435081
 C         2.154657         1.589611         1.108570
 O         1.796224         0.607989        -0.015921
 C         0.959856        -0.065580         0.822979
 C         0.244899        -1.221664         0.154742
 C         1.689481         0.304319         2.085933
 O         2.071832        -0.545710         3.137800
 H        -1.504751         1.350150         2.949868
 H        -1.805425         0.974996         1.369996
 H        -1.368402        -0.300478         2.445290
 H         0.411926         2.839883         0.646460
 H         1.035699         2.907059         2.303235
 H         3.119441         2.102139         0.840242
 H        -0.569476        -1.595634         0.762002
 H        -0.168730        -0.817305        -0.784159
 H         0.903689        -2.026544        -0.137914
 H         2.171636         0.013593         3.938190
