19
Iteration:  2980
 C        -1.106788         0.678432         2.445031
 C         0.211026         0.892132         1.703524
 C         0.998741         2.291512         1.432438
 C         2.232298         1.385066         1.154477
 O         1.848027         0.823203        -0.096892
 C         0.934909        -0.081756         0.688093
 C         0.279462        -1.246895         0.141010
 C         1.561609         0.320772         2.067245
 O         1.949595        -0.396404         3.186886
 H        -1.386832         1.598622         3.105745
 H        -1.875640         0.692940         1.695187
 H        -1.207086        -0.280289         3.063027
 H         0.677063         2.906322         0.533926
 H         1.078658         2.886538         2.326182
 H         3.182479         1.670694         1.378189
 H        -0.483621        -1.691827         0.756015
 H        -0.325466        -0.904400        -0.795524
 H         0.997374        -2.023568        -0.226281
 H         1.807839        -1.303204         2.855879
