19
Iteration:  4495charge 0 multiplicity 1
 C        -1.201856         0.709236         2.355903
 C         0.186256         1.040197         1.744546
 C         0.853960         2.344807         1.477064
 C         2.124891         1.470677         1.221273
 O         1.916596         0.741330        -0.012227
 C         0.952160        -0.044419         0.764871
 C         0.368047        -1.345370         0.221816
 C         1.467442         0.328061         2.103339
 O         2.074134        -0.579027         2.854051
 H        -1.318874         1.181437         3.351706
 H        -1.997136         1.221250         1.596086
 H        -1.441067        -0.336316         2.466816
 H         0.605527         3.081964         0.628559
 H         1.205428         2.811896         2.379331
 H         3.151259         1.988849         1.301778
 H        -0.623402        -1.301241        -0.237810
 H         1.035362        -1.644823        -0.498500
 H         0.445999        -2.172384         1.024857
 H         2.630435        -0.225327         3.556466
