19
Iteration:  4019
 C        -1.267338         0.758413         2.258658
 C         0.213538         0.916198         1.824248
 C         0.932941         2.252764         1.558057
 C         2.273547         1.489422         1.189560
 O         1.893269         0.796278        -0.060600
 C         0.899902        -0.035373         0.738026
 C         0.177193        -1.297235         0.222914
 C         1.610128         0.345357         2.068433
 O         2.125468        -0.571289         2.934835
 H        -1.722990         1.550396         2.791276
 H        -1.654332         0.677301         1.228067
 H        -1.328014        -0.212879         2.826088
 H         0.536975         2.758360         0.690207
 H         1.007029         2.882537         2.508660
 H         3.240127         1.967960         1.337388
 H        -0.305846        -1.803315         1.072206
 H        -0.554633        -1.111859        -0.654344
 H         0.914176        -1.980161        -0.255839
 H         2.055835        -0.240550         3.855677
