19
Iteration:  4040charge 0 multiplicity 1
 C        -1.244671         0.747093         2.107565
 C         0.192331         0.975865         1.749481
 C         0.971131         2.336326         1.574663
 C         2.146433         1.396087         1.231602
 O         1.758804         0.772264        -0.034908
 C         0.914101        -0.050742         0.746189
 C         0.249853        -1.207431         0.309653
 C         1.578294         0.217080         2.057772
 O         2.218447        -0.578471         2.950340
 H        -1.459737         1.398337         2.905987
 H        -1.804519         0.944510         1.217761
 H        -1.240002        -0.252686         2.494389
 H         0.720067         3.109694         0.820791
 H         1.068398         2.845411         2.613759
 H         3.167187         1.734875         1.309882
 H        -0.041500        -1.693092         1.228060
 H        -0.513512        -1.055203        -0.475205
 H         1.087314        -1.731270        -0.180554
 H         2.249701        -0.135640         3.799245
