19
Iteration:  3627
 C        -1.213975         0.824628         2.198916
 C         0.214963         0.861675         1.823163
 C         0.924171         2.288243         1.543987
 C         2.172591         1.467597         1.203134
 O         1.867622         0.824083        -0.031356
 C         0.937178        -0.087939         0.720441
 C         0.272315        -1.381176         0.224474
 C         1.511302         0.249249         2.048923
 O         2.181296        -0.447643         2.981145
 H        -1.293592         1.089882         3.352436
 H        -1.655542         1.666566         1.633809
 H        -1.713023        -0.219911         1.975354
 H         0.569007         2.897068         0.669891
 H         0.911919         2.855544         2.415746
 H         3.196354         1.728300         1.461527
 H        -0.198702        -1.940717         1.023298
 H        -0.486497        -0.962997        -0.623892
 H         1.152076        -1.930929        -0.209201
 H         1.481854        -0.629186         3.655305
