19
Iteration:  4528
 C        -1.098524         0.714926         2.393213
 C         0.255501         0.950231         1.731351
 C         0.845436         2.319279         1.509601
 C         2.148123         1.394348         1.184328
 O         1.756484         0.857320        -0.130430
 C         0.963221         0.000126         0.684756
 C         0.477714        -1.303154         0.223829
 C         1.577302         0.278455         2.005709
 O         1.924855        -0.595708         3.043123
 H        -1.073011         1.148832         3.404837
 H        -1.852079         1.464083         1.887393
 H        -1.572939        -0.235618         2.487289
 H         0.384874         3.000542         0.719951
 H         0.929784         2.832975         2.434451
 H         3.164189         1.863762         1.200146
 H        -0.165729        -1.424733        -0.662817
 H         1.342503        -1.822531         0.076531
 H        -0.072105        -1.842551         1.085363
 H         2.539713        -0.180590         3.670401
