19
Iteration:  4611
 C        -1.112868         0.590393         2.418863
 C         0.202762         0.916581         1.672888
 C         0.902943         2.329537         1.452596
 C         2.148457         1.467620         1.276610
 O         1.876578         0.741941        -0.073751
 C         0.918874        -0.048248         0.739583
 C         0.110533        -1.275233        -0.015941
 C         1.572008         0.265658         2.042802
 O         2.224140        -0.324371         3.173342
 H        -1.319657         1.359251         3.227506
 H        -1.818414         0.888762         1.630169
 H        -1.354717        -0.537761         2.712413
 H         0.596948         3.000322         0.612147
 H         0.932725         2.930835         2.502461
 H         3.118575         1.910964         1.565950
 H         0.389958        -1.167580        -1.067281
 H         0.390904        -2.364172         0.327098
 H        -0.936413        -1.147374         0.226694
 H         2.045347        -1.258845         3.332127
