19
Iteration:  1925charge 0 multiplicity 1
 C        -1.136878         0.725089         2.460264
 C         0.206610         0.934513         1.748133
 C         0.900272         2.257275         1.469341
 C         2.211622         1.457120         1.196814
 O         1.933931         0.828362        -0.083559
 C         0.988207        -0.019871         0.684820
 C         0.306178        -1.247683         0.097908
 C         1.480765         0.222979         1.998542
 O         1.976595        -0.529554         3.049826
 H        -1.650409         1.629475         2.596052
 H        -1.869837         0.059875         1.931060
 H        -1.102782         0.299542         3.521837
 H         0.458479         2.848363         0.664146
 H         0.984535         2.781155         2.434136
 H         3.341517         1.715278         1.315889
 H        -0.019512        -1.763952         0.985722
 H        -0.423151        -0.909754        -0.546894
 H         0.985567        -2.053039        -0.449141
 H         1.809010        -0.097822         3.917457
