19
Iteration:  2741charge 0 multiplicity 1
 C        -1.014578         0.724423         2.500352
 C         0.213378         1.014944         1.755118
 C         0.973105         2.269199         1.504508
 C         2.228643         1.467114         1.152673
 O         1.838677         0.734165        -0.115850
 C         0.880050         0.042962         0.708232
 C         0.373915        -1.280504         0.062939
 C         1.593755         0.260204         1.986603
 O         1.821700        -0.489485         3.131357
 H        -1.908284         1.394830         2.319105
 H        -1.334496        -0.234500         2.278251
 H        -0.759749         0.803379         3.558021
 H         0.590329         2.982180         0.739126
 H         1.109577         2.804739         2.420017
 H         3.268226         1.828605         1.133544
 H        -0.171395        -1.666647         0.850626
 H        -0.342896        -1.329499        -0.763758
 H         1.202888        -1.893775        -0.246946
 H         1.356463        -1.333842         3.126675
