19
Iteration:  1296charge 0 multiplicity 1
 C        -1.170780         0.625199         2.258359
 C         0.255760         0.896282         1.837327
 C         0.965067         2.233382         1.585792
 C         2.303693         1.569732         1.124115
 O         1.792213         0.743261        -0.034111
 C         0.940529        -0.051992         0.779363
 C         0.166707        -1.086819        -0.005386
 C         1.660038         0.271378         2.108637
 O         2.040309        -0.586436         3.095575
 H        -1.207660         0.064116         3.262822
 H        -1.740289         1.556020         2.247911
 H        -1.759762         0.094458         1.517685
 H         0.508320         2.485051         0.533550
 H         0.797793         2.968225         2.355726
 H         3.345934         1.827835         1.400617
 H        -0.708186        -1.281260         0.515897
 H        -0.338883        -0.435454        -0.809100
 H         0.674714        -1.897909        -0.465815
 H         2.222539        -0.140364         3.913984
