19
Iteration:  1871
 C        -1.205046         0.619583         2.133400
 C         0.240130         1.042202         1.947797
 C         0.925890         2.263968         1.493156
 C         2.120377         1.465993         1.212241
 O         1.790950         0.697943        -0.109567
 C         1.009612        -0.055001         0.778910
 C         0.196362        -1.123615         0.142905
 C         1.672828         0.250335         2.105093
 O         2.128759        -0.506873         3.081717
 H        -1.646888         1.326654         2.777183
 H        -1.821707         0.522136         1.116020
 H        -1.457234        -0.420852         2.583292
 H         0.654766         2.860824         0.699154
 H         1.117052         2.958873         2.319630
 H         3.200347         1.767971         1.133477
 H        -0.466647        -1.596796         0.796533
 H        -0.313334        -0.721032        -0.645296
 H         0.890732        -1.889516        -0.382399
 H         2.170340        -0.186234         4.000387
