19
Iteration:  2653charge 0 multiplicity 1
 C        -1.303959         0.787544         2.156927
 C         0.247030         1.052199         1.941833
 C         0.905790         2.277456         1.609037
 C         2.148467         1.432193         1.214784
 O         1.855896         0.699110        -0.046668
 C         0.982980        -0.161889         0.769148
 C         0.151240        -1.129925         0.105643
 C         1.566986         0.188937         2.047251
 O         2.282651        -0.561612         2.979192
 H        -1.826115         0.308053         1.273913
 H        -1.608422         0.185342         2.977399
 H        -1.708107         1.808228         2.321179
 H         0.702436         3.043859         0.876690
 H         1.135549         2.704683         2.562373
 H         3.226185         1.894175         1.186218
 H        -0.585858        -1.491210         0.802802
 H        -0.236975        -0.616487        -0.784227
 H         0.769721        -1.877551        -0.437982
 H         2.102776        -0.284711         3.877780
