19
Iteration:  3722charge 0 multiplicity 1
 C        -1.060053         0.666633         2.541554
 C         0.224782         0.914220         1.643918
 C         0.819751         2.271205         1.438239
 C         2.246475         1.496614         1.131880
 O         1.939186         0.686142         0.014744
 C         0.884380        -0.058882         0.704310
 C         0.254854        -1.146714        -0.025497
 C         1.660705         0.292828         2.060244
 O         1.879878        -0.509048         3.100010
 H        -1.290675         1.527016         3.042708
 H        -1.839828         0.192953         1.863449
 H        -0.750890        -0.112761         3.265932
 H         0.320641         2.985913         0.714109
 H         0.848927         2.754974         2.466173
 H         3.193411         2.016005         1.016762
 H        -0.594062        -1.455428         0.626398
 H        -0.086615        -0.744967        -0.923840
 H         0.984070        -1.987211         0.018946
 H         2.297044        -0.004185         3.843216
