19
Iteration:  4223
 C        -1.327354         0.673506         2.356471
 C         0.173747         0.914194         1.778376
 C         0.937466         2.370025         1.348674
 C         2.207540         1.448556         1.241035
 O         1.928308         0.739011         0.048606
 C         0.901729        -0.056455         0.791508
 C         0.232379        -1.189171         0.150516
 C         1.643429         0.280725         2.038291
 O         2.209461        -0.550924         2.960527
 H        -1.538100         1.515857         3.132675
 H        -2.121251         0.831927         1.593576
 H        -1.433298        -0.280570         2.822915
 H         0.532823         3.044769         0.596628
 H         0.801125         2.875361         2.234442
 H         3.235987         1.840310         1.178018
 H        -0.691388        -1.588503         0.645818
 H        -0.254512        -0.879609        -0.785220
 H         0.705338        -2.245248        -0.146449
 H         1.907885        -0.181745         3.832987
