19
Iteration:  3216charge 0 multiplicity 1
 C        -1.169974         0.707763         2.241417
 C         0.245585         0.959103         1.813564
 C         1.021233         2.286227         1.496861
 C         2.160428         1.424650         1.202592
 O         1.795552         0.685966        -0.050137
 C         0.883213        -0.097270         0.803711
 C         0.181848        -1.217279         0.050647
 C         1.635841         0.279536         2.047899
 O         2.082017        -0.392653         3.198299
 H        -1.465545         1.546728         2.831663
 H        -1.900271         0.781669         1.343557
 H        -1.376093        -0.242910         2.667815
 H         0.612533         3.025793         0.798173
 H         1.065911         2.787000         2.439963
 H         3.210813         1.847638         1.150396
 H        -0.794123        -1.492609         0.476563
 H        -0.035360        -0.728886        -0.946354
 H         0.865342        -2.116734        -0.189817
 H         2.836698        -0.969911         2.900705
