19
Iteration:   362
 C        -1.256990         0.734516         2.267996
 C         0.155293         0.935115         1.732098
 C         0.891422         2.279195         1.477921
 C         2.141673         1.474462         1.263593
 O         1.895641         0.696509        -0.030464
 C         0.946783        -0.115631         0.781655
 C         0.226492        -1.217070         0.077475
 C         1.634172         0.227668         2.028587
 O         2.237611        -0.370302         3.109038
 H        -1.571160         1.562452         2.806869
 H        -1.859995         0.464033         1.400908
 H        -1.311854        -0.174738         2.923637
 H         0.548968         2.720878         0.539487
 H         0.928995         2.952244         2.387014
 H         3.276572         1.724862         1.155043
 H        -0.685704        -1.542503         0.701503
 H        -0.177043        -0.786967        -0.766423
 H         0.790347        -2.050231        -0.074598
 H         1.635760        -0.662735         3.829893
