19
Iteration:  4958charge 0 multiplicity 1
 C        -1.039008         0.697948         2.425966
 C         0.278509         1.019578         1.822828
 C         0.870568         2.324533         1.497611
 C         2.193401         1.457743         1.189463
 O         1.739821         0.795524        -0.102609
 C         0.918748        -0.023203         0.663618
 C         0.455860        -1.386142         0.176289
 C         1.573542         0.309905         2.036081
 O         1.847202        -0.502578         3.072043
 H        -1.095524         0.837569         3.557443
 H        -1.803941         1.426302         2.010097
 H        -1.243488        -0.332804         2.054353
 H         0.714291         3.182720         0.708952
 H         1.010387         2.950106         2.393645
 H         3.091577         2.043014         1.120425
 H         0.143456        -1.237654        -0.888133
 H         1.338999        -1.991997         0.082082
 H        -0.311373        -1.826019         0.712987
 H         2.290709        -1.294364         2.708856
