19
Iteration:  1064charge 0 multiplicity 1
 C        -1.129326         0.691426         2.463986
 C         0.192472         0.990639         1.746844
 C         0.980579         2.254611         1.566326
 C         2.254216         1.391973         1.255203
 O         1.869911         0.787305        -0.058582
 C         0.858350         0.067671         0.636342
 C         0.279912        -1.162207         0.000719
 C         1.529976         0.249367         1.996073
 O         2.015356        -0.601820         3.009714
 H        -1.134687         1.370068         3.323893
 H        -2.086775         0.692329         1.918552
 H        -1.014111        -0.285522         2.999104
 H         0.608719         3.213739         1.005201
 H         1.179105         2.636639         2.608153
 H         3.230588         1.816659         1.213669
 H        -0.290707        -1.718133         0.778289
 H        -0.465310        -1.029489        -0.879527
 H         1.208727        -1.877069        -0.290838
 H         1.566747        -0.347032         3.818788
