19
Iteration:  4964
 C        -1.017831         0.719936         2.403311
 C         0.246268         1.014288         1.775463
 C         0.869579         2.372663         1.486129
 C         2.185598         1.458578         1.238561
 O         1.746363         0.820802        -0.077225
 C         0.918046        -0.044787         0.697165
 C         0.435307        -1.354116         0.185754
 C         1.557456         0.273235         1.966091
 O         1.891188        -0.490541         3.076753
 H        -1.119512         0.625891         3.481650
 H        -1.817903         1.347437         1.989872
 H        -1.237123        -0.311510         2.166804
 H         0.608027         2.865026         0.595072
 H         0.909123         2.833517         2.492610
 H         3.340944         1.763045         1.101043
 H         0.051726        -1.082708        -0.803264
 H         1.369244        -2.056400         0.134410
 H        -0.361254        -1.982952         0.785525
 H         2.271332        -1.306733         2.746878
