19
Iteration:  4797charge 0 multiplicity 1
 C        -1.127096         0.661913         2.328652
 C         0.225834         0.883587         1.719375
 C         0.911640         2.314527         1.571213
 C         2.196917         1.493771         1.172606
 O         1.909366         0.745572        -0.060610
 C         0.928407        -0.078602         0.741717
 C         0.225835        -1.291339         0.133369
 C         1.523194         0.269187         2.031112
 O         2.000804        -0.397922         3.089625
 H        -1.335442         1.318148         3.170108
 H        -1.819245         1.157029         1.654741
 H        -1.481955        -0.409286         2.513961
 H         0.634335         3.090198         0.843961
 H         1.187265         2.867735         2.559628
 H         3.134074         2.013361         1.328152
 H        -0.682756        -1.132488        -0.425543
 H         0.778791        -1.846698        -0.702063
 H         0.004465        -1.949431         0.931806
 H         2.958021        -0.464590         2.996377
