19
Iteration:  2596
 C        -1.136682         0.655279         2.393933
 C         0.242787         1.029872         1.762356
 C         1.014922         2.321565         1.567944
 C         2.211906         1.420181         1.217708
 O         1.884463         0.756478        -0.089203
 C         0.928069        -0.008270         0.666058
 C         0.264284        -1.237393         0.099946
 C         1.507130         0.300609         2.043102
 O         1.934282        -0.566009         2.975033
 H        -2.007075         0.374029         1.810858
 H        -0.829111        -0.055052         3.211111
 H        -1.506593         1.521048         3.024187
 H         0.854401         2.898295         0.628197
 H         1.120632         3.041052         2.437255
 H         3.256461         1.729521         1.166325
 H        -0.114094        -1.917876         1.005658
 H        -0.731317        -1.014076        -0.341907
 H         1.081509        -1.869282        -0.362258
 H         1.944116        -0.295071         3.932975
