19
Iteration:  1523charge 0 multiplicity 1
 C        -1.160313         0.753177         2.315020
 C         0.195816         0.931904         1.657422
 C         0.902721         2.289768         1.492229
 C         2.146544         1.410759         1.273168
 O         1.851942         0.716026        -0.024861
 C         0.953888        -0.060463         0.739318
 C         0.271241        -1.225458         0.030640
 C         1.523090         0.263630         2.110841
 O         2.159581        -0.455439         3.057920
 H        -1.850418         1.631303         2.424642
 H        -1.610068        -0.081788         1.754147
 H        -1.208192         0.291076         3.347933
 H         0.753531         2.976235         0.667637
 H         0.803622         2.633361         2.576539
 H         3.122255         1.789158         1.476498
 H        -0.445552        -1.621617         0.698081
 H        -0.071025        -0.792323        -0.922881
 H         0.873492        -2.230359        -0.122005
 H         2.017706         0.116889         3.852554
