19
Iteration:  3005charge 0 multiplicity 1
 C        -1.099017         0.732649         2.229391
 C         0.289568         0.942742         1.752349
 C         0.888114         2.274412         1.551259
 C         2.193715         1.493342         1.111769
 O         1.828751         0.650978        -0.026470
 C         0.911310        -0.093146         0.729611
 C         0.175897        -1.127762         0.101927
 C         1.667673         0.218161         2.072840
 O         2.042946        -0.416980         3.248306
 H        -1.643314         1.600599         2.780628
 H        -1.833108         0.386119         1.428007
 H        -1.002448        -0.151776         2.905563
 H         0.534009         2.875146         0.539214
 H         0.938183         3.101677         2.406200
 H         3.128827         2.058490         1.040244
 H        -0.711660        -1.627285         0.682164
 H        -0.350263        -0.750704        -0.911159
 H         0.864830        -1.956463        -0.226750
 H         2.364820        -1.320318         2.940580
