19
Iteration:  4817charge 0 multiplicity 1
 C        -1.189761         0.641408         2.220638
 C         0.236500         0.890694         1.711028
 C         0.896931         2.197443         1.482780
 C         2.217825         1.445232         1.183037
 O         1.787549         0.789835        -0.092255
 C         0.949427        -0.002407         0.703928
 C         0.210144        -1.128261         0.201713
 C         1.649483         0.211854         2.024411
 O         2.066933        -0.428554         3.266754
 H        -1.416605         1.238917         3.104482
 H        -2.063848         0.814144         1.631691
 H        -1.063325        -0.424855         2.389743
 H         0.498310         2.918815         0.804175
 H         0.972814         2.912754         2.336893
 H         3.318189         1.615922         1.304631
 H        -0.712224        -0.823879        -0.355596
 H         0.717365        -1.632293        -0.819337
 H        -0.054689        -1.692437         1.041485
 H         3.042915        -0.534275         3.155464
