19
Iteration:  2206
 C        -1.153297         0.729543         2.443144
 C         0.155501         0.899661         1.681869
 C         1.003754         2.307265         1.528927
 C         2.214917         1.411470         1.233821
 O         1.848772         0.800895        -0.097341
 C         0.905282        -0.028934         0.649668
 C         0.319811        -1.280586         0.178135
 C         1.523612         0.357530         2.076343
 O         2.024905        -0.554287         2.955520
 H        -1.667049         1.782521         2.530626
 H        -1.734803         0.083315         1.826344
 H        -1.125977         0.381757         3.478513
 H         0.767366         2.994700         0.671737
 H         0.965732         2.662349         2.587485
 H         3.255341         1.807086         1.477128
 H        -0.345510        -1.770435         0.915411
 H        -0.177254        -0.983550        -0.892147
 H         1.037731        -2.124454        -0.023215
 H         1.970169        -0.288291         3.892543
