19
Iteration:  3471charge 0 multiplicity 1
 C        -1.199534         0.692927         2.330929
 C         0.230746         0.853331         1.720348
 C         0.972151         2.291173         1.497356
 C         2.170105         1.392907         1.161156
 O         1.825751         0.755763         0.001029
 C         0.897740        -0.051313         0.755504
 C         0.282041        -1.154783        -0.013189
 C         1.632428         0.203229         2.024901
 O         2.125294        -0.346015         3.176604
 H        -1.390503         1.566043         2.902703
 H        -1.905253         0.345254         1.557373
 H        -1.334243        -0.122433         3.143802
 H         0.515005         2.959690         0.805775
 H         1.094268         2.698456         2.415160
 H         3.174493         1.792274         1.210275
 H        -0.728666        -1.459762         0.477883
 H        -0.203622        -0.855710        -0.961510
 H         0.872739        -2.100752         0.005203
 H         1.431615        -0.860051         3.589332
