19
Iteration:  4068charge 0 multiplicity 1
 C        -1.289118         0.806970         2.129561
 C         0.221662         0.946138         1.862884
 C         0.899714         2.323008         1.555205
 C         2.204103         1.438102         1.086083
 O         1.790419         0.801819        -0.061854
 C         0.908781        -0.024181         0.818307
 C         0.281208        -1.330000         0.210854
 C         1.643359         0.277437         2.117680
 O         2.142563        -0.621347         3.009585
 H        -1.255906         1.215701         3.231617
 H        -1.798339         1.536380         1.422073
 H        -1.438328        -0.286957         2.148955
 H         0.443335         2.959624         0.774827
 H         1.049827         2.833125         2.448756
 H         3.186761         1.959308         1.096139
 H        -0.037747        -1.945350         1.084694
 H        -0.487931        -0.995658        -0.494840
 H         1.079349        -1.811629        -0.426870
 H         2.453431        -0.364571         3.892617
