19
Iteration:  4425
 C        -1.090030         0.677235         2.202396
 C         0.265947         0.892076         1.792798
 C         0.966167         2.272233         1.635459
 C         2.150604         1.493351         1.199020
 O         1.819114         0.731796        -0.053767
 C         0.844426        -0.096171         0.725715
 C         0.197029        -1.236687         0.128091
 C         1.599480         0.232938         1.942910
 O         2.130591        -0.355471         3.117732
 H        -1.490540         1.322509         3.023660
 H        -1.747834         0.654407         1.297934
 H        -1.197238        -0.364197         2.716749
 H         0.506084         2.907198         0.923639
 H         1.283052         2.719259         2.620651
 H         3.125525         1.935722         1.250019
 H        -0.898368        -1.374776         0.281417
 H         0.381607        -1.164037        -1.079735
 H         0.747607        -2.126580         0.357689
 H         1.457528        -0.105386         3.778202
