19
Iteration:  3735charge 0 multiplicity 1
 C        -0.965353         0.669145         2.439442
 C         0.167958         0.990044         1.645872
 C         0.804380         2.354108         1.508400
 C         2.174199         1.454290         1.219272
 O         1.907695         0.695130        -0.024537
 C         0.956663        -0.033287         0.766051
 C         0.286927        -1.227635         0.072330
 C         1.587660         0.261276         1.971871
 O         1.926946        -0.543970         3.056191
 H        -1.225327         1.568563         2.937269
 H        -2.003793         0.501328         2.074379
 H        -0.778218        -0.052447         3.306983
 H         0.489646         3.079315         0.579306
 H         0.892805         2.928497         2.467222
 H         3.185650         1.812057         1.257935
 H        -0.511159        -1.733354         0.557424
 H        -0.066204        -0.948794        -0.944716
 H         0.978224        -1.990752        -0.329701
 H         2.093110         0.037789         3.814532
