19
Iteration:  4895charge 0 multiplicity 1
 C        -1.074644         0.715668         2.449487
 C         0.200598         0.967340         1.738304
 C         0.845989         2.331578         1.413041
 C         2.243465         1.418359         1.297343
 O         1.858130         0.857346        -0.030984
 C         0.906117        -0.036389         0.711734
 C         0.322409        -1.319263         0.074953
 C         1.558164         0.206739         1.975188
 O         1.979500        -0.437714         3.092765
 H        -1.216194         1.331657         3.292758
 H        -1.890958         0.935537         1.835283
 H        -1.207240        -0.281383         2.905630
 H         0.473043         2.735562         0.536225
 H         0.714742         2.887129         2.334245
 H         3.167939         1.864442         1.290983
 H        -0.197150        -1.097223        -0.867387
 H         1.114568        -2.216381        -0.014917
 H        -0.395299        -1.863811         0.670045
 H         2.567019        -1.163407         2.820906
