19
Iteration:  3424charge 0 multiplicity 1
 C        -1.284274         0.670807         2.290911
 C         0.171907         1.027236         1.821247
 C         0.895111         2.229071         1.507623
 C         2.241474         1.368437         1.209877
 O         1.874889         0.745114        -0.033045
 C         0.952609        -0.024387         0.731879
 C         0.252133        -1.222363         0.088450
 C         1.550108         0.329406         2.026569
 O         2.194050        -0.407351         3.099397
 H        -1.475653         1.339238         3.096836
 H        -2.015826         0.707371         1.410072
 H        -1.421624        -0.279180         2.734977
 H         0.664799         2.857517         0.691148
 H         1.195901         2.810511         2.338186
 H         3.311161         1.652438         1.328176
 H        -0.761641        -1.395806         0.490976
 H         0.041400        -0.991767        -0.913271
 H         0.863620        -2.128514         0.235658
 H         1.714319        -1.262333         3.121745
