19
Iteration:  3336charge 0 multiplicity 1
 C        -1.082743         0.763123         2.381637
 C         0.165894         1.031876         1.685686
 C         0.966400         2.358208         1.545368
 C         2.193466         1.483047         1.187255
 O         1.875814         0.781544        -0.111365
 C         0.896675        -0.003928         0.676246
 C         0.384280        -1.444912         0.172037
 C         1.470273         0.236847         2.030721
 O         1.884670        -0.564562         3.105678
 H        -0.854617         1.011674         3.373766
 H        -1.891011         1.471964         1.940064
 H        -1.488650        -0.185011         2.422869
 H         0.778050         3.075798         0.843063
 H         0.999475         2.827160         2.411460
 H         3.250368         1.887297         1.259200
 H         0.192265        -2.153183         0.973259
 H        -0.531323        -1.298476        -0.389537
 H         1.233291        -1.776767        -0.483813
 H         2.760738        -0.182579         3.299158
