19
Iteration:  1687charge 0 multiplicity 1
 C        -1.231954         0.702298         2.251882
 C         0.213946         0.929848         1.833152
 C         0.852905         2.268125         1.386615
 C         2.171380         1.466119         1.121828
 O         1.813544         0.660571        -0.016742
 C         0.949812        -0.057409         0.840435
 C         0.229980        -1.132495         0.052411
 C         1.704198         0.204442         2.066528
 O         2.185090        -0.442119         3.212444
 H        -1.563655         0.218632         3.208087
 H        -1.910292         1.443798         1.815693
 H        -1.520648        -0.038688         1.452809
 H         0.663750         2.962571         0.562824
 H         0.912931         2.836828         2.437925
 H         3.071810         2.015158         1.186496
 H        -0.349732        -1.810724         0.608645
 H        -0.229101        -0.666036        -0.828015
 H         0.987897        -1.914860        -0.456477
 H         1.844408         0.124246         3.967394
