19
Iteration:    65
 C        -1.109788         0.811897         2.516912
 C         0.153863         1.016603         1.706006
 C         0.930214         2.308600         1.403923
 C         2.227694         1.426998         1.140199
 O         1.959589         0.764582        -0.094393
 C         0.808524         0.040785         0.682749
 C         0.564398        -1.464117         0.279469
 C         1.443909         0.346124         2.032688
 O         1.846815        -0.565075         2.970527
 H        -0.954370         1.165747         3.497673
 H        -1.903731         1.366543         2.014824
 H        -1.424415        -0.167789         2.629393
 H         0.548922         2.935444         0.635939
 H         0.953885         2.932609         2.260314
 H         3.264561         1.690171         1.295186
 H         0.399207        -2.071646         1.090720
 H        -0.337419        -1.530811        -0.388624
 H         1.416513        -1.870731        -0.268296
 H         1.463774        -0.240571         3.769271
