19
Iteration:  3838
 C        -1.258432         0.785880         2.179741
 C         0.145718         0.934620         1.767568
 C         0.913000         2.231112         1.500736
 C         2.168135         1.414823         1.223591
 O         1.884973         0.757349        -0.019861
 C         0.902030         0.057011         0.711307
 C         0.333543        -1.218731         0.265170
 C         1.502750         0.256999         2.140288
 O         2.192663        -0.583988         2.931822
 H        -1.219521         0.667556         3.357343
 H        -1.809148         1.677392         1.956389
 H        -1.726847        -0.048897         1.693097
 H         0.325908         2.750130         0.581893
 H         0.983732         2.923393         2.397573
 H         3.237914         1.716666         1.270661
 H         0.103011        -1.752175         1.248862
 H        -0.621578        -1.051843        -0.231597
 H         0.957425        -1.934966        -0.261767
 H         2.609318        -0.023252         3.640034
