19
Iteration:  2061charge 0 multiplicity 1
 C        -1.202826         0.641517         2.160040
 C         0.307568         1.001142         1.939714
 C         0.922375         2.329670         1.506426
 C         2.186967         1.517262         1.255678
 O         1.814050         0.753088        -0.009841
 C         0.921005        -0.096377         0.769270
 C         0.140080        -1.118461         0.095426
 C         1.595223         0.163509         2.044828
 O         2.217526        -0.621404         3.031932
 H        -1.652669         0.470780         1.160765
 H        -1.402913        -0.051065         2.999864
 H        -1.752214         1.550668         2.447058
 H         0.517357         2.811476         0.635919
 H         0.980733         3.164905         2.178507
 H         3.108886         1.941167         1.062473
 H        -0.697742        -1.366399         0.759597
 H        -0.443853        -0.690220        -0.772765
 H         0.794642        -1.801804        -0.289046
 H         2.169065        -0.164510         3.924754
