19
Iteration:  1741
 C        -1.158501         0.679515         2.391233
 C         0.213249         0.932850         1.710084
 C         0.884942         2.352127         1.502776
 C         2.225417         1.491058         1.120895
 O         1.940381         0.755399        -0.064049
 C         0.920676         0.024883         0.685828
 C         0.364749        -1.325679         0.193243
 C         1.618993         0.219962         1.970751
 O         1.881104        -0.485617         3.063242
 H        -0.946260         0.361157         3.447691
 H        -1.637439         1.624988         2.689600
 H        -1.906999        -0.160321         2.222168
 H         0.578078         2.879914         0.619254
 H         0.931239         3.026184         2.462484
 H         3.187967         1.957262         1.254906
 H        -0.240281        -1.771670         0.948597
 H        -0.222847        -1.366699        -0.720404
 H         1.288303        -2.113836         0.030893
 H         1.551496        -0.006828         3.857785
