19
Iteration:  2531charge 0 multiplicity 1
 C        -1.092651         0.824976         2.490542
 C         0.241700         0.879587         1.748556
 C         0.942339         2.323849         1.471721
 C         2.178729         1.423914         1.130938
 O         1.791931         0.835663        -0.046199
 C         0.938322        -0.059868         0.710839
 C         0.430699        -1.285636         0.079752
 C         1.671038         0.264427         2.011164
 O         1.803834        -0.641273         3.035088
 H        -1.655050         1.759366         2.327537
 H        -1.748082        -0.108738         2.433410
 H        -0.795780         0.932325         3.591929
 H         0.686347         2.917216         0.598578
 H         0.873522         2.966658         2.371939
 H         3.290310         1.910203         1.201345
 H        -0.231736        -1.821162         0.899947
 H        -0.345331        -1.077887        -0.706286
 H         1.350120        -1.792287        -0.342892
 H         1.874251        -0.017501         3.782372
