19
Iteration:  2943charge 0 multiplicity 1
 C        -0.984939         0.766421         2.485646
 C         0.200830         0.992011         1.695727
 C         0.915086         2.368597         1.483002
 C         2.129082         1.404880         1.134858
 O         1.892085         0.671313        -0.070602
 C         0.898153        -0.017973         0.743719
 C         0.416341        -1.320881         0.137574
 C         1.471015         0.377972         2.020172
 O         1.797731        -0.514969         3.088665
 H        -0.814013         1.175733         3.434970
 H        -1.908948         1.205075         2.031776
 H        -1.216481        -0.300616         2.526777
 H         0.785539         3.144139         0.804301
 H         1.103328         2.981289         2.366580
 H         3.320261         1.720033         1.057523
 H        -0.001623        -1.954532         0.913662
 H        -0.154200        -1.166958        -0.683946
 H         1.296551        -1.860076        -0.135093
 H         2.548352        -1.052545         2.696833
