19
Iteration:  3192charge 0 multiplicity 1
 C        -1.116020         0.791730         2.277907
 C         0.260380         0.955934         1.811704
 C         0.926658         2.240930         1.512969
 C         2.200097         1.438238         1.096816
 O         1.783759         0.748041        -0.103624
 C         0.967302        -0.045892         0.784750
 C         0.280012        -1.189282         0.122667
 C         1.584720         0.235548         2.056813
 O         1.961608        -0.536436         3.206652
 H        -1.236927         1.613515         3.106387
 H        -2.026622         1.073610         1.597388
 H        -1.304374        -0.251176         2.481027
 H         0.458365         2.716341         0.635283
 H         0.847018         2.959239         2.337552
 H         3.261547         1.762047         0.988851
 H        -0.607569        -1.464411         0.740696
 H        -0.028761        -1.068998        -0.988516
 H         1.087724        -2.001409         0.175410
 H         2.940449        -0.610604         3.032351
