19
Iteration:  3044
 C        -1.222491         0.712708         2.230112
 C         0.200565         1.003361         1.760613
 C         0.997525         2.302806         1.512186
 C         2.145032         1.368322         1.255812
 O         1.861109         0.696421        -0.022002
 C         1.022193        -0.137626         0.736832
 C         0.150433        -1.140334         0.131499
 C         1.516232         0.193486         2.035389
 O         2.121895        -0.384906         3.112473
 H        -1.657716         1.457445         2.888689
 H        -1.770409         0.686241         1.330645
 H        -1.245118        -0.225255         2.802625
 H         0.614801         2.515498         0.608741
 H         1.015684         2.949297         2.309602
 H         3.250497         1.524028         1.316690
 H        -0.438692        -1.505554         0.876133
 H        -0.411168        -0.637929        -0.553092
 H         0.713218        -1.913108        -0.320020
 H         3.046951        -0.225089         3.059853
