19
Iteration:  1780charge 0 multiplicity 1
 C        -1.144116         0.768334         2.470499
 C         0.213255         0.994224         1.724349
 C         0.941508         2.406245         1.425499
 C         2.224381         1.525204         1.140098
 O         1.780666         0.758536        -0.078210
 C         0.943670        -0.080738         0.774363
 C         0.547600        -1.359041         0.191715
 C         1.571383         0.345201         2.034652
 O         1.798533        -0.691343         3.033150
 H        -0.800447         0.482996         3.509136
 H        -1.699466         1.714100         2.376967
 H        -1.801256         0.070391         1.981191
 H         0.690851         2.891779         0.441480
 H         0.788967         3.048986         2.241736
 H         3.177686         1.923076         0.810802
 H         0.180417        -2.069604         0.958775
 H        -0.061723        -1.204248        -0.730256
 H         1.475094        -1.765762        -0.105843
 H         1.760311        -0.123494         3.810690
