19
Iteration:  2443
 C        -1.206306         0.740029         2.197602
 C         0.309491         0.924772         1.840669
 C         0.860455         2.322687         1.534729
 C         2.234681         1.603714         1.146445
 O         1.826797         0.694484        -0.085604
 C         0.963656        -0.117198         0.794521
 C         0.132660        -1.168324         0.177072
 C         1.645733         0.246154         2.053831
 O         2.145814        -0.609358         3.096448
 H        -1.640407         1.469187         2.840420
 H        -1.786634         0.858994         1.237608
 H        -1.367924        -0.243623         2.689046
 H         0.389888         2.799821         0.702470
 H         0.837084         2.829300         2.487572
 H         3.297838         1.899169         0.789214
 H        -0.704860        -1.495029         0.836254
 H        -0.076444        -0.764063        -0.776977
 H         0.646269        -2.080556        -0.093273
 H         2.128578        -0.022485         3.889271
