19
Iteration:  2242charge 0 multiplicity 1
 C        -1.228530         0.767360         2.241494
 C         0.311970         0.906173         1.884036
 C         0.885403         2.297238         1.542611
 C         2.171863         1.423206         1.153687
 O         1.803428         0.714830        -0.146445
 C         0.886960        -0.002072         0.837953
 C         0.193507        -1.195392         0.086452
 C         1.640792         0.300226         2.103559
 O         2.226296        -0.595697         3.092171
 H        -1.744185         1.750320         2.291396
 H        -1.696769         0.355496         1.307688
 H        -1.549877         0.047159         2.995500
 H         0.468886         2.919655         0.757414
 H         0.942944         2.959400         2.406875
 H         3.175095         1.855365         1.190843
 H        -0.714667        -1.562654         0.486822
 H        -0.110589        -0.872881        -0.920014
 H         1.036859        -1.927510        -0.040104
 H         1.943428        -0.156938         3.908536
