19
Iteration:  1545charge 0 multiplicity 1
 C        -1.215473         0.769071         2.366517
 C         0.220095         0.923726         1.728696
 C         0.840394         2.311157         1.514788
 C         2.203388         1.511153         1.186492
 O         1.961179         0.776661        -0.006804
 C         0.919384        -0.009011         0.648695
 C         0.325001        -1.355947         0.124484
 C         1.553314         0.245709         1.995317
 O         2.012983        -0.542244         3.022151
 H        -1.555003         1.784737         2.691665
 H        -2.036645         0.110580         2.079223
 H        -1.009011         0.352968         3.400061
 H         0.417291         2.981603         0.762980
 H         1.124863         2.840134         2.496119
 H         3.173708         1.746064         1.510098
 H        -0.392059        -1.781494         0.795705
 H        -0.085628        -1.208951        -0.894884
 H         1.160276        -2.166063         0.059138
 H         2.024294         0.080001         3.773466
