19
Iteration:   284
 C        -1.171379         0.767814         2.314965
 C         0.160161         1.045720         1.683570
 C         0.935788         2.313604         1.515904
 C         2.174886         1.465927         1.258265
 O         1.895491         0.741068        -0.102503
 C         0.955034        -0.061341         0.655258
 C         0.371303        -1.382285         0.310485
 C         1.477989         0.234190         1.968501
 O         1.967648        -0.490566         3.067382
 H        -1.035258         0.954510         3.378475
 H        -1.891650         1.597271         2.085619
 H        -1.557976        -0.233515         2.113587
 H         0.539446         2.934556         0.670592
 H         1.021261         2.996801         2.391723
 H         3.249454         1.718069         1.234366
 H         0.115157        -1.813097         1.270657
 H        -0.520884        -1.358016        -0.340246
 H         1.060323        -2.004252        -0.175464
 H         2.917224        -0.162346         3.153766
