19
Iteration:  1472
 C        -1.087257         0.605352         2.243476
 C         0.295775         0.959468         1.771760
 C         0.860412         2.346476         1.532216
 C         2.180601         1.425172         1.148944
 O         1.828169         0.738342        -0.040972
 C         1.030947        -0.094176         0.768927
 C         0.201508        -1.155634         0.064465
 C         1.587189         0.260561         2.081944
 O         2.053525        -0.533632         3.153954
 H        -1.723165         1.267491         1.585900
 H        -1.492141        -0.408832         2.251467
 H        -1.359546         1.089927         3.157625
 H         0.359808         2.919896         0.644620
 H         1.023968         3.063734         2.306135
 H         3.166217         1.976139         1.017541
 H        -0.391096        -1.749747         0.834107
 H        -0.526669        -0.621753        -0.676157
 H         0.813330        -1.799925        -0.470439
 H         1.761002         0.053794         3.916003
