19
Iteration:  4084
 C        -1.154877         0.821144         2.279591
 C         0.207418         0.950735         1.807443
 C         0.896991         2.200847         1.495830
 C         2.150484         1.530074         1.243202
 O         1.765477         0.703636        -0.063628
 C         0.961871        -0.064124         0.754850
 C         0.368799        -1.229824         0.232157
 C         1.614243         0.284910         2.054847
 O         2.078213        -0.605867         2.961871
 H        -1.505578         1.135877         3.232651
 H        -1.596235         1.541568         1.585780
 H        -1.701965        -0.094600         2.040983
 H         0.454889         2.800723         0.667852
 H         0.976360         2.933662         2.421490
 H         3.186380         1.797310         1.138341
 H        -0.031357        -1.864534         1.016081
 H        -0.455719        -0.842153        -0.424203
 H         1.087940        -1.711647        -0.424787
 H         2.109150         0.045806         3.668470
