19
Iteration:  1203charge 0 multiplicity 1
 C        -1.020645         0.767731         2.437754
 C         0.250952         0.919974         1.797299
 C         0.980991         2.336892         1.564486
 C         2.213336         1.512497         1.112488
 O         1.782509         0.884761        -0.057952
 C         0.852730         0.004112         0.748280
 C         0.461353        -1.268680         0.047443
 C         1.638888         0.267504         2.041543
 O         1.778870        -0.756825         2.993563
 H        -1.220537         1.207682         3.406762
 H        -1.672099         1.231455         1.647869
 H        -1.505306        -0.255227         2.401193
 H         0.633909         3.118676         0.869917
 H         1.031604         2.880672         2.604353
 H         3.299588         1.659706         1.017301
 H         0.101688        -1.990329         0.875734
 H        -0.515531        -1.177980        -0.353417
 H         1.245505        -1.713792        -0.583677
 H         1.642089        -0.249044         3.857060
