19
Iteration:  3633
 C        -1.200139         0.811288         2.218433
 C         0.211002         0.904605         1.774865
 C         0.927547         2.260218         1.564271
 C         2.160274         1.445038         1.287903
 O         1.841243         0.773793        -0.063264
 C         0.981999        -0.110413         0.680940
 C         0.274623        -1.306122         0.197096
 C         1.530374         0.247720         2.032056
 O         2.171412        -0.419931         2.995346
 H        -1.309803         1.027779         3.238204
 H        -1.917545         1.428302         1.615547
 H        -1.649398        -0.137983         2.107484
 H         0.598390         2.889016         0.686385
 H         1.057605         2.941610         2.503510
 H         3.121002         2.014460         1.399946
 H        -0.331394        -1.787504         1.009279
 H        -0.450141        -1.079599        -0.494101
 H         1.014179        -2.061611        -0.097633
 H         1.606569        -0.680646         3.755729
