19
Iteration:  3506
 C        -1.061872         0.652035         2.360536
 C         0.305336         1.004365         1.864280
 C         0.858666         2.348579         1.448655
 C         2.118406         1.450934         1.140643
 O         1.876269         0.734180        -0.013862
 C         0.953114        -0.091186         0.716644
 C         0.280509        -1.236109         0.017674
 C         1.598109         0.260244         2.041685
 O         1.954778        -0.488120         3.114021
 H        -1.440760         1.422025         3.077348
 H        -1.806087         0.683771         1.604817
 H        -0.957775        -0.374812         2.855393
 H         0.552129         2.953469         0.638665
 H         1.108408         2.955138         2.250318
 H         3.192128         1.622720         1.180889
 H        -0.149706        -1.795633         0.852905
 H        -0.404870        -0.798839        -0.784315
 H         1.041973        -1.789862        -0.566230
 H         1.501660        -0.239843         3.918115
