19
Iteration:  2784
 C        -1.081460         0.745514         2.477486
 C         0.301662         0.962228         1.754678
 C         0.922309         2.297626         1.476492
 C         2.259241         1.436078         1.200138
 O         1.878554         0.695159        -0.013536
 C         0.883549        -0.011658         0.634015
 C         0.268950        -1.272309         0.027236
 C         1.528224         0.292106         1.979103
 O         1.876627        -0.452323         3.143411
 H        -1.613170         1.675814         2.845076
 H        -1.726513         0.173330         1.849422
 H        -0.949385         0.108565         3.363650
 H         0.538249         2.981334         0.644864
 H         0.921896         2.865395         2.400380
 H         3.175413         1.837183         1.151673
 H        -0.238748        -1.762111         0.825119
 H        -0.523529        -1.204450        -0.780016
 H         1.104438        -1.884849        -0.372606
 H         2.792790        -0.824468         3.116844
