19
Iteration:  2471
 C        -1.218010         0.740584         2.184854
 C         0.271155         0.898093         1.792429
 C         0.946987         2.226404         1.495448
 C         2.193572         1.430008         1.248818
 O         1.802319         0.786506        -0.065914
 C         0.880635        -0.047244         0.791163
 C         0.159123        -1.145582         0.167115
 C         1.613550         0.251514         2.054307
 O         2.238048        -0.525146         3.056268
 H        -1.762808         1.706907         2.378558
 H        -1.802982         0.279095         1.381822
 H        -1.295838         0.067135         3.049090
 H         0.693312         2.858737         0.599747
 H         0.989546         2.757510         2.491642
 H         3.159453         1.698372         1.126345
 H        -0.730855        -1.400364         0.801365
 H        -0.106976        -0.819460        -0.902214
 H         0.769718        -2.097164         0.202109
 H         1.847772        -0.237434         3.926312
