19
Iteration:  3350charge 0 multiplicity 1
 C        -1.135547         0.853200         2.401605
 C         0.237627         0.981110         1.699854
 C         0.877598         2.300712         1.538466
 C         2.192928         1.391274         1.199358
 O         1.901392         0.755345        -0.055019
 C         0.868488        -0.015513         0.659073
 C         0.421902        -1.304159         0.197896
 C         1.499647         0.282107         1.949369
 O         1.906810        -0.536877         3.062116
 H        -1.097050         0.961908         3.465789
 H        -1.986011         1.436929         1.966153
 H        -1.394863        -0.253711         2.114080
 H         0.362229         2.975158         0.783319
 H         1.000632         2.794813         2.543818
 H         3.235401         1.718729         1.243384
 H         0.242454        -1.835629         1.240759
 H        -0.468116        -1.379285        -0.424341
 H         1.270667        -1.950250        -0.255634
 H         2.902385        -0.582587         3.166404
