19
Iteration:   442charge 0 multiplicity 1
 C        -1.016197         0.694038         2.459565
 C         0.241030         1.052200         1.662304
 C         0.858250         2.347629         1.350919
 C         2.218960         1.522027         1.135598
 O         1.866050         0.747290        -0.094918
 C         0.910606        -0.026296         0.752697
 C         0.401469        -1.244056         0.218048
 C         1.549408         0.251595         2.005922
 O         1.837307        -0.671748         3.124709
 H        -1.382695         1.584831         3.008509
 H        -1.869536         0.242625         2.008567
 H        -0.645763         0.010572         3.221431
 H         0.539086         2.992194         0.539944
 H         0.920099         2.909120         2.263421
 H         3.136805         2.105724         0.991517
 H         0.072049        -1.884554         0.949140
 H        -0.312416        -1.067768        -0.517083
 H         1.307781        -1.707085        -0.236881
 H         1.572809        -0.322657         3.976654
