19
Iteration:  3362
 C        -1.182228         0.787493         2.358448
 C         0.163804         0.925961         1.771091
 C         0.929045         2.255772         1.485405
 C         2.170540         1.448276         1.193400
 O         1.889846         0.749734        -0.061545
 C         0.932707         0.028646         0.667642
 C         0.403447        -1.291193         0.245435
 C         1.572988         0.249902         2.024485
 O         1.915130        -0.492473         3.027408
 H        -1.146240         1.085692         3.451092
 H        -1.757067         1.591116         1.890870
 H        -1.803823        -0.216286         2.371233
 H         0.550971         3.008022         0.673327
 H         1.178808         2.870414         2.458287
 H         3.161169         1.862896         1.275057
 H        -0.059893        -1.898588         1.141098
 H        -0.379615        -1.216511        -0.550944
 H         1.307221        -1.816313        -0.210941
 H         2.737782        -1.000676         2.804165
