19
Iteration:  4289charge 0 multiplicity 1
 C        -1.270392         0.803983         2.205868
 C         0.198080         0.993410         1.767214
 C         0.999901         2.325895         1.575901
 C         2.225303         1.409945         1.155282
 O         1.727800         0.795795        -0.088648
 C         0.944417         0.000479         0.688609
 C         0.421025        -1.345391         0.245141
 C         1.499705         0.285522         2.072181
 O         2.070825        -0.593980         3.017557
 H        -1.343283         1.068337         3.307518
 H        -2.086177         1.180503         1.616610
 H        -1.320192        -0.265045         2.260595
 H         0.812453         3.186354         0.925160
 H         1.110188         2.629516         2.586269
 H         3.319897         1.706904         1.020808
 H         0.457697        -1.862326         1.249914
 H        -0.615852        -1.183051        -0.018364
 H         1.103069        -1.970061        -0.513547
 H         2.121834        -0.163311         3.880386
