19
Iteration:    24
 C        -1.116317         0.851738         2.370393
 C         0.297702         0.910380         1.829776
 C         0.900693         2.278727         1.412271
 C         2.208999         1.558388         0.997193
 O         1.801740         0.810668        -0.154315
 C         0.905848         0.002729         0.704369
 C         0.536724        -1.355735         0.210985
 C         1.613554         0.238727         2.100978
 O         1.778771        -0.668387         3.189201
 H        -1.229952         1.392759         3.351666
 H        -1.773472         1.365513         1.676963
 H        -1.521902        -0.199413         2.499422
 H         0.368052         2.790420         0.588266
 H         1.008233         2.942474         2.321318
 H         3.185378         2.089976         0.867384
 H         0.065162        -1.985315         1.054476
 H        -0.208709        -1.234658        -0.526961
 H         1.379983        -1.863357        -0.250545
 H         1.826715        -0.157976         4.054859
