19
Iteration:  3427
 C        -1.294346         0.667426         2.284959
 C         0.162984         1.020145         1.817245
 C         0.908449         2.261616         1.514014
 C         2.227666         1.367367         1.212292
 O         1.885465         0.746604        -0.017691
 C         0.942117        -0.065607         0.707382
 C         0.251823        -1.224283         0.073934
 C         1.550670         0.313870         2.007169
 O         2.204148        -0.396621         3.107304
 H        -1.428391         1.358839         3.074448
 H        -1.984428         0.680445         1.459902
 H        -1.475008        -0.322088         2.868179
 H         0.664191         2.937114         0.727193
 H         1.269370         2.803093         2.317585
 H         3.249225         1.664077         1.366729
 H        -0.812349        -1.282317         0.567424
 H         0.017823        -0.945842        -0.960576
 H         0.910475        -2.103477         0.314632
 H         1.731321        -1.225445         3.139497
