19
Iteration:  3707
 C        -1.026186         0.588635         2.505570
 C         0.221081         0.943607         1.816496
 C         0.929572         2.235568         1.396915
 C         2.157995         1.503884         1.112106
 O         1.913385         0.735726        -0.119232
 C         1.021026        -0.037256         0.725170
 C         0.237963        -1.153183        -0.029533
 C         1.521069         0.291889         2.076571
 O         1.906806        -0.518398         3.199358
 H        -1.465692         1.535875         3.058128
 H        -1.852136         0.223801         1.910212
 H        -1.000742        -0.147685         3.282584
 H         0.617763         2.782074         0.588419
 H         1.096040         2.918540         2.206065
 H         3.180203         1.982262         1.145117
 H        -0.799948        -1.378968         0.335333
 H        -0.067176        -0.676911        -1.028074
 H         0.812984        -2.079855        -0.215139
 H         2.165969         0.122372         3.906197
