19
Iteration:  1066
 C        -1.128987         0.696643         2.460076
 C         0.178702         0.979313         1.749031
 C         1.007012         2.257168         1.570942
 C         2.243530         1.398480         1.244874
 O         1.859289         0.789109        -0.059230
 C         0.873186         0.073820         0.638402
 C         0.282201        -1.171661         0.006528
 C         1.512712         0.234684         1.997531
 O         2.024575        -0.601515         3.015826
 H        -1.180577         1.397970         3.310815
 H        -2.029523         0.665191         1.879482
 H        -1.014247        -0.250385         2.983068
 H         0.588182         3.134849         1.067121
 H         1.176243         2.675476         2.571179
 H         3.251136         1.875117         1.222869
 H        -0.281611        -1.715300         0.705845
 H        -0.436794        -0.956600        -0.885559
 H         1.139007        -1.876926        -0.287530
 H         1.586836        -0.331555         3.818728
