19
Iteration:  2540
 C        -1.039649         0.840543         2.536991
 C         0.276583         0.890095         1.763576
 C         0.960521         2.312948         1.398294
 C         2.218347         1.509939         1.194842
 O         1.759296         0.877612        -0.073536
 C         0.977526        -0.055808         0.710255
 C         0.417215        -1.303559         0.098940
 C         1.608334         0.219840         1.993881
 O         1.760058        -0.646150         3.040895
 H        -1.776515         1.530945         2.154295
 H        -1.591979        -0.178789         2.418364
 H        -0.827512         1.018385         3.643447
 H         0.677683         2.910102         0.501674
 H         0.879461         2.873839         2.386943
 H         3.236809         1.876898         1.138436
 H         0.018181        -2.112265         0.902416
 H        -0.284977        -1.049921        -0.767889
 H         1.128421        -2.019447        -0.453479
 H         1.756622        -0.279419         3.940698
