19
Iteration:  3132
 C        -1.091578         0.742639         2.501629
 C         0.167276         1.011753         1.643436
 C         0.979423         2.355260         1.389634
 C         2.187556         1.457540         1.165469
 O         1.894460         0.718205        -0.087997
 C         0.864719        -0.010624         0.709131
 C         0.395757        -1.288558         0.184860
 C         1.564644         0.313149         2.015673
 O         1.876942        -0.525294         3.136279
 H        -0.971133         0.832765         3.568466
 H        -1.814978         1.388336         2.122354
 H        -1.512865        -0.284022         2.410528
 H         0.677286         3.094918         0.626692
 H         0.957295         2.811874         2.402159
 H         3.237205         1.783944         1.204763
 H         0.074166        -1.895452         0.988741
 H        -0.260399        -1.352888        -0.593802
 H         1.310210        -1.748101        -0.064863
 H         1.702039        -1.441010         2.951443
