19
Iteration:  1269
 C        -1.061129         0.689983         2.394739
 C         0.217007         0.975040         1.757278
 C         0.942218         2.283434         1.537894
 C         2.088029         1.447927         1.179977
 O         1.929783         0.773679        -0.028455
 C         0.900989        -0.041661         0.695088
 C         0.235188        -1.127426        -0.002150
 C         1.591100         0.196104         2.027559
 O         2.046923        -0.570803         3.094805
 H        -0.981947         0.246127         3.363336
 H        -1.699675         1.607167         2.338430
 H        -1.663556        -0.037146         1.744498
 H         0.669242         2.850741         0.649742
 H         1.023306         2.786800         2.564280
 H         3.005389         1.898640         1.526939
 H        -0.428666        -1.701143         0.783021
 H        -0.472730        -0.648263        -0.642047
 H         0.913390        -1.802589        -0.666590
 H         1.615016        -0.288297         3.899769
