19
Iteration:  1506charge 0 multiplicity 1
 C        -1.243056         0.618551         2.247555
 C         0.170655         0.925663         1.798262
 C         0.932471         2.280190         1.482446
 C         2.222038         1.417389         1.188291
 O         1.840943         0.714493        -0.027296
 C         0.914731        -0.087560         0.803856
 C         0.238251        -1.113096         0.031520
 C         1.620630         0.262243         2.067971
 O         2.155780        -0.456913         3.145651
 H        -1.705775         1.593779         2.029162
 H        -1.840900        -0.141727         1.724577
 H        -1.241937         0.558112         3.329305
 H         0.416390         2.757258         0.578051
 H         1.146558         2.934501         2.295009
 H         3.285641         1.835165         0.981715
 H        -0.621230        -1.682159         0.569187
 H        -0.039836        -0.550554        -0.917593
 H         0.923244        -1.829457        -0.233722
 H         2.027199        -0.001063         4.028470
