19
Iteration:  3318charge 0 multiplicity 1
 C        -1.131028         0.759312         2.418598
 C         0.198690         0.952200         1.709130
 C         0.994669         2.340641         1.465251
 C         2.218129         1.439912         1.154537
 O         1.790591         0.776446        -0.033562
 C         0.932039        -0.119028         0.717798
 C         0.399840        -1.289342         0.100467
 C         1.611709         0.332154         2.035147
 O         1.844730        -0.531583         3.070466
 H        -1.223254         1.073920         3.486371
 H        -1.975821         1.279096         1.953930
 H        -1.302787        -0.399182         2.391960
 H         0.686653         3.092221         0.615480
 H         1.190492         2.785289         2.565785
 H         3.261030         1.735872         1.192625
 H         0.287187        -2.092424         0.932813
 H        -0.582771        -1.253925        -0.368374
 H         1.038637        -1.824161        -0.652988
 H         2.317644        -0.061149         3.785536
