19
Iteration:  1339
 C        -1.238846         0.737727         2.322812
 C         0.162104         0.981688         1.698995
 C         0.972411         2.296739         1.612026
 C         2.174474         1.388829         1.303051
 O         1.937188         0.785082        -0.065968
 C         0.874803         0.001569         0.708193
 C         0.262319        -1.210353         0.125590
 C         1.555477         0.273885         2.058348
 O         2.115211        -0.589260         2.953030
 H        -1.127796        -0.257146         2.873042
 H        -1.540785         1.551711         2.990244
 H        -2.011369         0.554587         1.546124
 H         0.859505         2.983587         0.703791
 H         0.925212         2.589562         2.656198
 H         3.130178         1.833275         1.116492
 H        -0.518576        -1.599993         0.709959
 H        -0.125302        -0.938684        -0.909089
 H         0.993716        -2.053452         0.029898
 H         1.988755        -0.195728         3.847086
