19
Iteration:  2706
 C        -1.148391         0.793616         2.361682
 C         0.228470         0.992479         1.715074
 C         0.948960         2.268020         1.541171
 C         2.203959         1.467077         1.186122
 O         1.774376         0.760613        -0.075426
 C         0.975762        -0.034188         0.700189
 C         0.304613        -1.216750         0.091232
 C         1.591058         0.275368         2.057937
 O         2.051678        -0.589978         3.084186
 H        -1.995236         0.915895         1.682509
 H        -1.184928        -0.200431         2.849452
 H        -1.303360         1.488665         3.227919
 H         0.619182         2.920013         0.662641
 H         1.140987         2.847918         2.484758
 H         3.138698         1.787486         1.318821
 H        -0.312005        -1.680006         0.903721
 H        -0.287371        -0.810504        -0.789568
 H         0.912598        -2.128871        -0.023910
 H         1.366239        -1.172743         3.408201
