19
Iteration:   727charge 0 multiplicity 1
 C        -1.193367         0.699336         2.145947
 C         0.253877         0.972085         1.948484
 C         0.846882         2.296006         1.527910
 C         2.200225         1.402901         1.140845
 O         1.839432         0.746707        -0.137578
 C         0.894289        -0.001489         0.832464
 C         0.221673        -1.193540         0.211178
 C         1.618227         0.252554         2.141873
 O         2.165671        -0.570407         3.043851
 H        -1.718284         1.392969         2.792293
 H        -1.499106         1.087182         1.175299
 H        -1.540926        -0.279873         2.354623
 H         0.342373         2.650826         0.583987
 H         0.955291         3.055286         2.276969
 H         3.168085         1.873635         0.945586
 H        -0.497655        -1.580872         0.802381
 H        -0.268851        -0.810980        -0.690183
 H         0.967235        -2.005745        -0.211780
 H         2.473975        -0.101587         3.803430
