19
Iteration:   750charge 0 multiplicity 1
 C        -1.232561         0.707106         2.180899
 C         0.192278         0.974031         1.706986
 C         0.959749         2.316641         1.487272
 C         2.138787         1.461749         1.258518
 O         1.798016         0.797953         0.009168
 C         0.956385        -0.107621         0.792302
 C         0.211642        -1.219742         0.166355
 C         1.589471         0.165692         2.069657
 O         2.198400        -0.540538         3.031447
 H        -1.613181         1.642806         2.587600
 H        -1.981418         0.527677         1.434287
 H        -1.251627         0.050216         3.005084
 H         0.743725         3.042276         0.670764
 H         1.013800         2.759380         2.489163
 H         3.208878         1.900640         1.277805
 H        -0.409438        -1.471867         0.960827
 H        -0.480383        -0.879809        -0.627996
 H         0.821255        -2.125162        -0.220207
 H         2.778895         0.096170         3.539305
