19
Iteration:  3314
 C        -1.118518         0.748185         2.417113
 C         0.197232         0.975976         1.747934
 C         0.968880         2.311361         1.468832
 C         2.248947         1.439684         1.126107
 O         1.786292         0.757363        -0.040175
 C         0.938538        -0.083008         0.750514
 C         0.402556        -1.281903         0.085077
 C         1.606022         0.301343         2.028699
 O         1.848675        -0.529517         3.069974
 H        -1.146345         1.009074         3.437361
 H        -1.998845         1.208314         1.807651
 H        -1.317347        -0.271255         2.428394
 H         0.733389         3.015825         0.756652
 H         0.966222         2.807046         2.348548
 H         3.333890         1.719895         1.198175
 H         0.269020        -1.990790         0.899033
 H        -0.622769        -1.124043        -0.295230
 H         1.085409        -1.767498        -0.656265
 H         2.166348         0.049283         3.813401
