19
Iteration:  2355
 C        -1.040335         0.874012         2.509603
 C         0.248823         0.907708         1.726249
 C         0.878419         2.287473         1.454379
 C         2.158610         1.604684         1.115487
 O         1.838195         0.729768        -0.127748
 C         0.954313         0.017661         0.718381
 C         0.450909        -1.318616         0.153960
 C         1.654920         0.173450         1.953289
 O         1.771991        -0.649525         3.128075
 H        -0.827209         0.859144         3.523115
 H        -1.570950         1.858285         2.442311
 H        -1.707478         0.012023         2.281388
 H         0.279688         2.921992         0.829930
 H         1.217984         2.871410         2.304469
 H         3.147345         2.060709         0.838283
 H         0.527718        -2.124434         0.937789
 H        -0.428827        -1.267676        -0.366607
 H         1.204664        -1.633075        -0.522786
 H         1.280583        -0.165063         3.853381
