19
Iteration:  3997charge 0 multiplicity 1
 C        -1.128956         0.728185         2.328466
 C         0.215367         0.968184         1.735447
 C         0.840879         2.367522         1.461014
 C         2.140942         1.513910         1.144944
 O         1.848984         0.727725        -0.042135
 C         0.976434        -0.021850         0.721843
 C         0.322949        -1.170086         0.197048
 C         1.564025         0.208020         2.062095
 O         2.083411        -0.685553         3.060271
 H        -1.302509         1.625010         2.886403
 H        -1.971753         0.648872         1.527244
 H        -1.041115        -0.077777         3.171523
 H         0.420022         2.875020         0.601926
 H         1.107037         2.926753         2.422382
 H         3.137984         1.976391         1.228395
 H        -0.327959        -1.612128         0.955398
 H        -0.354310        -0.791833        -0.694536
 H         0.883404        -1.967561        -0.366753
 H         1.914994        -0.171300         3.874121
