19
Iteration:  3228charge 0 multiplicity 1
 C        -1.237584         0.704273         2.256203
 C         0.235832         0.966828         1.760774
 C         0.938566         2.334447         1.582514
 C         2.232008         1.430908         1.160783
 O         1.909169         0.678241        -0.068438
 C         0.850853        -0.058950         0.737919
 C         0.079833        -1.210706        -0.001816
 C         1.598136         0.221724         2.091280
 O         2.165214        -0.351562         3.239603
 H        -1.595280         1.369266         2.951924
 H        -1.967098         0.623558         1.401420
 H        -1.171092        -0.248393         2.767160
 H         0.728740         2.851789         0.635436
 H         1.163868         2.915464         2.454663
 H         3.298895         1.808931         1.227803
 H        -0.708391        -1.696503         0.583667
 H        -0.241362        -1.013523        -1.021706
 H         0.904504        -2.030602        -0.030336
 H         2.587507        -1.217511         2.960093
