19
Iteration:  2606charge 0 multiplicity 1
 C        -1.088171         0.699109         2.336100
 C         0.246572         0.989552         1.744005
 C         0.981731         2.389119         1.505115
 C         2.188410         1.433093         1.234683
 O         1.850757         0.819487        -0.065982
 C         0.907480        -0.032929         0.694208
 C         0.214058        -1.227826         0.135007
 C         1.547474         0.203438         2.025470
 O         2.004131        -0.627582         3.065618
 H        -1.735594         0.254424         1.598162
 H        -1.091223        -0.116269         3.128452
 H        -1.541415         1.641511         2.722771
 H         0.538520         3.029178         0.693278
 H         1.219425         2.981263         2.461235
 H         3.212631         1.573066         1.257689
 H        -0.149465        -1.785663         1.107028
 H        -0.574199        -0.978726        -0.623346
 H         0.842656        -1.839536        -0.569314
 H         2.189320        -0.032385         3.841028
