19
Iteration:  3709
 C        -1.028021         0.604704         2.522009
 C         0.224606         0.919928         1.800529
 C         0.930808         2.220261         1.392550
 C         2.169211         1.524910         1.102760
 O         1.920188         0.726388        -0.102051
 C         0.997275        -0.032195         0.720309
 C         0.241178        -1.143764        -0.028950
 C         1.519700         0.310437         2.066543
 O         1.903711        -0.520275         3.197321
 H        -1.491528         1.467471         3.024982
 H        -1.881326         0.251413         1.885232
 H        -0.936380        -0.131663         3.273798
 H         0.609499         2.784360         0.607385
 H         1.073411         2.874096         2.285934
 H         3.170265         2.012865         1.174105
 H        -0.789817        -1.394231         0.389845
 H        -0.013423        -0.763518        -0.991799
 H         0.781112        -2.082795        -0.269873
 H         2.199123         0.070483         3.897094
