19
Iteration:  1899charge 0 multiplicity 1
 C        -1.123270         0.600561         2.234331
 C         0.233189         0.981415         1.691417
 C         0.898162         2.314391         1.492618
 C         2.214632         1.523922         1.201701
 O         1.855420         0.701424         0.003153
 C         0.897854        -0.002206         0.763736
 C         0.180298        -1.169092         0.116022
 C         1.619868         0.239265         2.078666
 O         2.090779        -0.544277         3.087164
 H        -1.618424         1.561125         2.576755
 H        -1.714807         0.034647         1.575257
 H        -1.170552        -0.028716         3.092761
 H         0.518920         3.107618         0.715964
 H         0.933369         2.767734         2.493124
 H         3.234149         1.803459         1.136373
 H        -0.372072        -1.702928         0.924638
 H        -0.526696        -0.760147        -0.738993
 H         0.849803        -1.864246        -0.389865
 H         2.242988        -0.053442         3.936643
