19
Iteration:  4432charge 0 multiplicity 1
 C        -1.108836         0.709912         2.184328
 C         0.260080         0.915268         1.786503
 C         0.856428         2.281754         1.632252
 C         2.206322         1.493004         1.223558
 O         1.750317         0.742672        -0.103698
 C         0.969327        -0.073979         0.766091
 C         0.186402        -1.240985         0.121119
 C         1.668869         0.183305         1.975322
 O         2.135473        -0.406099         3.134380
 H        -1.598305         1.399694         2.858745
 H        -1.713529         0.748367         1.306188
 H        -1.206136        -0.255872         2.582567
 H         0.513170         3.049820         0.878890
 H         1.105204         2.829330         2.533854
 H         3.176977         1.979798         0.997428
 H        -0.893955        -1.317875         0.306733
 H         0.374901        -1.168814        -0.868731
 H         0.594641        -2.241061         0.443721
 H         1.578157        -0.385135         3.910995
