19
Iteration:  4536charge 0 multiplicity 1
 C        -1.041466         0.761889         2.387042
 C         0.242540         0.922199         1.818237
 C         0.913275         2.278641         1.490148
 C         2.131537         1.487572         1.166003
 O         1.738273         0.868236        -0.121394
 C         0.930766        -0.053209         0.653936
 C         0.476343        -1.349133         0.218620
 C         1.562393         0.289758         2.034579
 O         1.896931        -0.594321         3.040380
 H        -0.975283         1.047386         3.435823
 H        -1.720848         1.295181         1.795188
 H        -1.405352        -0.268618         2.279032
 H         0.430741         2.929103         0.797359
 H         0.843641         2.780567         2.450624
 H         3.097670         2.002223         1.124931
 H         0.028575        -1.113712        -0.768356
 H         1.360244        -2.076530         0.064491
 H        -0.214205        -1.827882         0.969416
 H         2.356854         0.037714         3.628820
