19
Iteration:  2908charge 0 multiplicity 1
 C        -1.094165         0.841288         2.401680
 C         0.290492         0.928073         1.814170
 C         0.870973         2.314790         1.429108
 C         2.123970         1.460541         1.137391
 O         1.836392         0.825303        -0.118998
 C         0.941232        -0.036700         0.634334
 C         0.400133        -1.295231         0.166388
 C         1.618919         0.183978         2.074031
 O         1.841658        -0.559656         3.179531
 H        -1.111837         0.968850         3.489365
 H        -1.502858         1.805496         2.036196
 H        -1.726396         0.012912         2.200092
 H         0.607566         2.656210         0.428564
 H         0.952397         2.980879         2.327538
 H         3.215007         1.852775         0.952877
 H        -0.118107        -1.733044         1.062217
 H        -0.364975        -1.363827        -0.579912
 H         1.216859        -1.918365        -0.124811
 H         2.714937        -1.028529         3.066587
