19
Iteration:  2371
 C        -1.041340         0.873513         2.546435
 C         0.248376         0.945683         1.738613
 C         0.885584         2.274978         1.528683
 C         2.204694         1.455300         1.051182
 O         1.846676         0.759707        -0.140608
 C         0.970888        -0.083109         0.659297
 C         0.484648        -1.347580         0.139981
 C         1.555609         0.360509         2.064938
 O         1.777968        -0.592730         3.039303
 H        -0.913731         0.761722         3.719844
 H        -1.591043         1.782285         2.342371
 H        -1.669162         0.018276         2.311943
 H         0.598966         2.930383         0.652488
 H         0.837118         2.657987         2.582711
 H         3.159701         2.015148         1.175712
 H         0.439564        -2.005217         0.991701
 H        -0.536150        -1.204537        -0.450083
 H         1.092750        -1.894716        -0.645621
 H         1.442623        -0.245486         3.888261
