19
Iteration:  1671charge 0 multiplicity 1
 C        -1.312134         0.677932         2.178319
 C         0.228212         0.890826         1.853877
 C         0.925147         2.245137         1.449729
 C         2.191480         1.442194         1.144844
 O         1.819710         0.706462        -0.074476
 C         0.987096        -0.086451         0.798217
 C         0.272621        -1.151487         0.057036
 C         1.568973         0.302459         2.145418
 O         2.215185        -0.445446         3.186766
 H        -1.443147         0.597388         3.265182
 H        -1.848340         1.636939         2.069698
 H        -1.890186        -0.186913         1.782969
 H         0.297740         2.494492         0.560180
 H         1.071571         3.000245         2.179955
 H         3.224091         1.885059         0.986416
 H        -0.320876        -1.854279         0.736920
 H        -0.371937        -0.602601        -0.677694
 H         0.991891        -1.745821        -0.517160
 H         1.965008        -0.010476         4.004136
