19
Iteration:   313charge 0 multiplicity 1
 C        -1.265860         0.717132         2.162589
 C         0.234342         0.983709         1.766402
 C         0.920294         2.307886         1.469803
 C         2.237451         1.499772         1.185599
 O         1.787618         0.690639        -0.040298
 C         0.894014        -0.033120         0.814979
 C         0.297449        -1.288414         0.238009
 C         1.593952         0.308162         2.091938
 O         2.122066        -0.474166         3.132889
 H        -1.319992         1.088373         3.246365
 H        -1.793901         1.397493         1.461095
 H        -1.764963        -0.216579         2.021595
 H         0.459401         2.776387         0.529150
 H         1.025568         2.895789         2.375692
 H         3.225755         1.761882         1.020958
 H        -0.276616        -1.866741         0.928426
 H        -0.421776        -1.010427        -0.631675
 H         1.198534        -1.941205        -0.070990
 H         2.732584        -1.043460         2.608682
