19
Iteration:   127charge 0 multiplicity 1
 C        -1.159603         0.715378         2.166452
 C         0.266328         0.971768         1.880236
 C         0.887629         2.268759         1.457205
 C         2.169349         1.587636         1.090740
 O         1.783678         0.607791        -0.071417
 C         0.953593        -0.097323         0.824440
 C         0.266208        -1.170726         0.167209
 C         1.626027         0.271937         2.058618
 O         2.117059        -0.536446         3.183671
 H        -1.631122         1.397753         2.993527
 H        -1.779693         0.866689         1.179881
 H        -1.339147        -0.358161         2.428934
 H         0.407431         2.710975         0.502389
 H         1.047241         2.936790         2.346294
 H         3.046083         2.143612         0.887845
 H        -0.598043        -1.439463         0.779198
 H        -0.127455        -0.657962        -0.808193
 H         0.933470        -2.042283        -0.113259
 H         2.081405        -0.036005         3.986521
