19
Iteration:  3093
 C        -1.160954         0.771056         2.331454
 C         0.298960         0.962598         1.825488
 C         0.901199         2.395846         1.475798
 C         2.182690         1.410609         1.085589
 O         1.801989         0.699591        -0.092155
 C         0.994037        -0.110907         0.734705
 C         0.362344        -1.249559         0.137372
 C         1.585459         0.238615         2.023716
 O         1.876892        -0.462568         3.194305
 H        -1.106876         1.103456         3.455787
 H        -1.739032         1.574889         1.744581
 H        -1.558286        -0.249095         2.477441
 H         0.514384         2.904839         0.565812
 H         1.125274         2.797773         2.488608
 H         3.186457         1.790546         1.225129
 H        -0.040316        -1.965293         0.964650
 H        -0.505786        -0.800298        -0.554066
 H         1.200614        -1.711622        -0.490491
 H         2.647822        -1.013915         2.832800
