19
Iteration:  1546
 C        -1.217430         0.771735         2.375049
 C         0.221604         0.919231         1.732765
 C         0.842124         2.316208         1.513632
 C         2.204027         1.509217         1.182682
 O         1.958561         0.774437        -0.010644
 C         0.923212        -0.000965         0.648845
 C         0.334399        -1.356979         0.127152
 C         1.560442         0.248293         1.996218
 O         2.004162        -0.547200         3.020122
 H        -1.576913         1.789811         2.706949
 H        -2.026483         0.109041         2.061851
 H        -1.023867         0.351905         3.383661
 H         0.410926         2.987567         0.751586
 H         1.091878         2.801575         2.480249
 H         3.175752         1.754165         1.513508
 H        -0.363035        -1.787877         0.831222
 H        -0.081815        -1.203562        -0.921654
 H         1.123181        -2.153065         0.076648
 H         2.008600         0.074323         3.747431
