19
Iteration:   326
 C        -1.255020         0.794116         2.139735
 C         0.260572         0.964341         1.946908
 C         0.877304         2.314520         1.508042
 C         2.139241         1.463619         1.131522
 O         1.812348         0.662352        -0.061375
 C         0.975411        -0.090957         0.807458
 C         0.298729        -1.267367         0.193393
 C         1.635040         0.266974         2.082342
 O         2.148916        -0.430058         3.108278
 H        -1.756263         1.174775         3.070907
 H        -1.882360         1.265919         1.347160
 H        -1.353081        -0.263388         2.167255
 H         0.482648         2.812750         0.531888
 H         0.940781         3.199612         2.175974
 H         3.023875         1.994098         1.158295
 H        -0.381879        -1.687902         0.851542
 H        -0.258926        -0.897108        -0.755063
 H         0.954931        -2.037181        -0.222651
 H         2.242159        -1.376809         2.934960
