19
Iteration:  4947charge 0 multiplicity 1
 C        -1.094769         0.683723         2.450312
 C         0.229836         0.966863         1.826708
 C         0.990084         2.325199         1.527329
 C         2.151795         1.565816         1.037699
 O         1.803723         0.782215        -0.124952
 C         0.890568         0.009230         0.746590
 C         0.510484        -1.347483         0.125286
 C         1.554410         0.327652         2.036110
 O         1.813816        -0.550889         3.105828
 H        -1.011275         0.867601         3.570344
 H        -1.857481         1.386829         1.986835
 H        -1.587054        -0.318052         2.388665
 H         0.330674         2.905040         0.732155
 H         1.297894         2.812007         2.463478
 H         3.147158         1.998598         1.019789
 H         0.099514        -1.400097        -0.905519
 H         1.305997        -2.112850         0.227305
 H        -0.249909        -1.721121         0.744437
 H         2.404141        -1.239666         2.788254
