19
Iteration:  4508
 C        -1.229771         0.749327         2.396458
 C         0.085066         0.991248         1.717917
 C         0.944487         2.293787         1.499615
 C         2.184293         1.520107         1.178497
 O         1.904303         0.772078        -0.046859
 C         0.863640         0.010333         0.688365
 C         0.451447        -1.347191         0.249677
 C         1.543502         0.312234         2.012731
 O         2.027935        -0.636771         2.975893
 H        -1.172190         1.071698         3.461324
 H        -2.216098         1.156644         1.898511
 H        -1.349106        -0.333027         2.380884
 H         0.534121         3.048453         0.724308
 H         0.860882         2.840956         2.451121
 H         3.192270         2.035150         1.165071
 H        -0.463294        -1.237822        -0.346726
 H         1.187444        -1.797078        -0.328598
 H         0.238931        -2.010120         1.122437
 H         2.715572        -0.058664         3.391030
