19
Iteration:  2718
 C        -1.064874         0.751800         2.419260
 C         0.278445         0.944643         1.839619
 C         0.932322         2.374510         1.504940
 C         2.200091         1.469756         1.136730
 O         1.849117         0.803104        -0.095395
 C         0.960915        -0.075244         0.711409
 C         0.303038        -1.286534         0.099603
 C         1.548834         0.247994         2.028467
 O         1.947810        -0.558445         3.100380
 H        -1.792644         1.153331         1.678862
 H        -1.392135        -0.229366         2.650802
 H        -1.116949         1.417999         3.297957
 H         0.502443         3.150904         0.813236
 H         1.041355         2.827088         2.490013
 H         3.189624         1.815770         0.982902
 H        -0.428001        -1.651270         0.792663
 H        -0.329951        -1.122443        -0.821428
 H         1.052532        -1.974303        -0.279674
 H         1.183362        -1.180908         3.146970
