19
Iteration:  1142
 C        -1.236912         0.743499         2.294970
 C         0.192555         0.966521         1.749599
 C         0.966902         2.231537         1.628189
 C         2.232226         1.480462         1.335305
 O         1.938307         0.770658         0.005247
 C         0.906807        -0.007051         0.748236
 C         0.139708        -1.144754         0.106135
 C         1.532705         0.251497         2.038210
 O         2.170024        -0.643400         2.836807
 H        -1.764626         1.640237         2.683831
 H        -1.742983         0.279292         1.444934
 H        -1.203688        -0.056457         3.051592
 H         0.742611         2.990457         0.735215
 H         0.873365         2.960134         2.458950
 H         3.297393         1.775910         1.276239
 H        -0.587180        -1.460210         0.804182
 H        -0.369055        -0.615666        -0.838414
 H         0.654611        -2.209193         0.010447
 H         2.127856        -0.363644         3.797676
