19
Iteration:  4250charge 0 multiplicity 1
 C        -1.142156         0.791035         2.160015
 C         0.233275         0.962339         1.797067
 C         0.855659         2.242538         1.519067
 C         2.156824         1.463947         1.202092
 O         1.801567         0.724486        -0.011989
 C         0.928624         0.025849         0.763791
 C         0.309094        -1.216842         0.225127
 C         1.577639         0.280190         2.115311
 O         2.189315        -0.631706         2.979059
 H        -1.494365         1.489739         2.922187
 H        -1.787053         1.131616         1.321734
 H        -1.389738        -0.299634         2.425413
 H         0.221371         2.720629         0.729009
 H         0.848657         3.062715         2.365786
 H         3.063226         2.023454         0.978355
 H        -0.314574        -1.618191         1.014248
 H        -0.482263        -1.118685        -0.569476
 H         0.739578        -2.028525        -0.210460
 H         2.283677        -0.200799         3.871565
