19
Iteration:  1868charge 0 multiplicity 1
 C        -1.202574         0.618046         2.123575
 C         0.236302         1.033396         1.941026
 C         0.908783         2.263770         1.491092
 C         2.132249         1.473984         1.237933
 O         1.785065         0.680788        -0.123561
 C         1.000451        -0.032087         0.773461
 C         0.232002        -1.117087         0.148105
 C         1.671363         0.230118         2.076174
 O         2.144971        -0.510985         3.097750
 H        -1.687407         1.362963         2.806177
 H        -1.798055         0.809889         1.212641
 H        -1.359940        -0.374474         2.567918
 H         0.524828         2.928280         0.662171
 H         1.047198         2.912175         2.323560
 H         3.145549         1.671600         1.215379
 H        -0.487258        -1.565408         0.792186
 H        -0.469896        -0.745420        -0.638649
 H         0.898021        -1.925833        -0.307280
 H         2.130923        -0.193675         3.995247
