19
Iteration:  2452charge 0 multiplicity 1
 C        -1.155704         0.746083         2.153641
 C         0.312595         0.925977         1.802241
 C         0.841892         2.290002         1.537031
 C         2.189467         1.506735         1.092975
 O         1.804963         0.729676        -0.060229
 C         0.992511        -0.031431         0.765190
 C         0.115091        -1.172533         0.165095
 C         1.628011         0.228137         2.099376
 O         2.208824        -0.625067         3.142635
 H        -1.483183         1.659981         2.632586
 H        -1.822900         0.576296         1.205495
 H        -1.420273        -0.165381         2.790307
 H         0.290572         2.876284         0.803063
 H         1.001928         2.973879         2.386242
 H         3.059374         2.083620         1.118636
 H        -0.905129        -1.371810         0.759014
 H        -0.277290        -0.742526        -0.801627
 H         0.736469        -2.104842         0.114540
 H         2.086937        -0.142626         3.998420
