19
Iteration:  2586charge 0 multiplicity 1
 C        -1.108975         0.672897         2.505412
 C         0.141411         1.031433         1.765033
 C         1.030971         2.285863         1.508288
 C         2.294035         1.413985         1.178003
 O         1.904885         0.706267        -0.067028
 C         0.917945         0.038856         0.710661
 C         0.310525        -1.225316         0.152650
 C         1.504664         0.348738         1.987962
 O         1.884642        -0.576339         2.925923
 H        -1.908674         0.383894         1.799659
 H        -0.988821        -0.295083         3.066728
 H        -1.441563         1.497511         3.192520
 H         0.714132         3.027449         0.755900
 H         1.103099         2.759312         2.511537
 H         3.239626         2.008896         1.343740
 H         0.087576        -1.974394         0.983555
 H        -0.501510        -1.077984        -0.593748
 H         1.012448        -1.778479        -0.563779
 H         1.523381        -0.185806         3.765053
