19
Iteration:  2158charge 0 multiplicity 1
 C        -1.050624         0.718637         2.483661
 C         0.224107         0.998131         1.737939
 C         0.925159         2.346946         1.470509
 C         2.257901         1.506346         1.072024
 O         1.807828         0.804081        -0.126624
 C         0.969045        -0.030038         0.820458
 C         0.429916        -1.287017         0.148648
 C         1.588784         0.324187         2.102628
 O         1.766773        -0.706997         2.972715
 H        -1.678519         1.515901         2.473277
 H        -1.590019        -0.267957         2.317708
 H        -0.709458         0.712063         3.550379
 H         0.500619         2.943253         0.643729
 H         0.999628         2.966142         2.399634
 H         3.215668         1.984181         1.132523
 H         0.001563        -2.131380         0.836757
 H        -0.333683        -0.952973        -0.605867
 H         1.269141        -1.747337        -0.460036
 H         1.553097        -0.263153         3.844336
