19
Iteration:   885charge 0 multiplicity 1
 C        -1.073527         0.698264         2.364017
 C         0.225938         0.972806         1.756905
 C         0.906306         2.306289         1.534151
 C         2.139421         1.400525         1.235934
 O         1.851161         0.741779        -0.087540
 C         0.853015         0.048899         0.697824
 C         0.301949        -1.190447         0.091411
 C         1.543229         0.278915         2.042766
 O         2.054121        -0.605529         3.047607
 H        -1.571316        -0.024151         1.769864
 H        -0.948348         0.180102         3.300070
 H        -1.664880         1.556542         2.546624
 H         0.678040         2.924681         0.665663
 H         1.106426         2.921582         2.475837
 H         3.172493         1.796695         1.291303
 H        -0.509576        -1.732309         0.741995
 H        -0.297865        -0.723706        -0.706514
 H         0.973284        -1.892930        -0.256994
 H         2.378649        -0.131386         3.840271
