19
Iteration:   832charge 0 multiplicity 1
 C        -0.968809         0.725719         2.498441
 C         0.269440         0.998213         1.699524
 C         0.895255         2.263815         1.495606
 C         2.184780         1.486685         1.100265
 O         1.797566         0.824128        -0.024138
 C         0.912678         0.025408         0.669573
 C         0.396818        -1.229386         0.119449
 C         1.583855         0.215369         1.971973
 O         1.822602        -0.649415         3.085832
 H        -1.847832         0.990769         1.889016
 H        -1.060474        -0.291713         2.944108
 H        -0.999312         1.458510         3.337638
 H         0.517816         2.900689         0.673514
 H         0.969291         2.937852         2.356904
 H         3.191661         1.693253         1.047528
 H         0.079311        -2.052631         0.887623
 H        -0.308811        -1.105883        -0.704141
 H         1.321983        -1.641677        -0.280407
 H         1.478466        -0.273917         3.907154
