19
Iteration:  1874charge 0 multiplicity 1
 C        -1.211392         0.611791         2.133020
 C         0.246332         1.025686         1.944305
 C         0.942020         2.272189         1.506382
 C         2.133826         1.454789         1.180972
 O         1.797324         0.717151        -0.087591
 C         1.012413        -0.078451         0.789464
 C         0.185081        -1.136941         0.137860
 C         1.650333         0.279877         2.116707
 O         2.121830        -0.513848         3.072025
 H        -1.690063         1.356619         2.800562
 H        -1.763777         0.334202         1.150301
 H        -1.460574        -0.366459         2.579865
 H         0.680103         2.871162         0.599676
 H         1.183694         3.010544         2.342499
 H         3.195029         1.876470         1.079103
 H        -0.513622        -1.689048         0.872246
 H        -0.287894        -0.618388        -0.773812
 H         0.832277        -1.812817        -0.376140
 H         2.179382        -0.123013         3.985816
