19
Iteration:  2899
 C        -1.054034         0.880376         2.323045
 C         0.305539         0.951089         1.780637
 C         0.847735         2.261999         1.503677
 C         2.181562         1.419183         1.147348
 O         1.825973         0.781893        -0.127343
 C         0.950888         0.004052         0.712105
 C         0.337949        -1.347417         0.140937
 C         1.553538         0.269950         2.041910
 O         1.913699        -0.528922         3.181947
 H        -0.975644         0.830782         3.377097
 H        -1.696970         1.761885         2.020332
 H        -1.619155        -0.013595         2.010953
 H         0.244132         2.677451         0.748980
 H         0.769029         2.947701         2.354111
 H         3.247605         2.019614         1.282711
 H        -0.104054        -1.804819         1.035278
 H        -0.347042        -1.265567        -0.618752
 H         1.114729        -2.009481        -0.164643
 H         2.609945        -1.215737         2.995439
