19
Iteration:  3370charge 0 multiplicity 1
 C        -1.215525         0.769819         2.350129
 C         0.204330         0.921500         1.775034
 C         0.937660         2.265849         1.495058
 C         2.204473         1.518533         1.176008
 O         1.885761         0.769717        -0.101838
 C         0.910860        -0.036268         0.753885
 C         0.395645        -1.284161         0.232063
 C         1.523126         0.304494         1.998899
 O         1.961978        -0.535505         3.090740
 H        -1.171716         1.138554         3.312834
 H        -1.828413         1.618357         1.902920
 H        -1.739022        -0.184317         2.285116
 H         0.752787         2.836876         0.653109
 H         1.025755         2.794264         2.334884
 H         3.195178         2.028441         1.242045
 H        -0.137573        -1.891333         1.004333
 H        -0.259580        -1.140487        -0.594942
 H         1.137035        -2.014058        -0.192623
 H         2.490404        -1.205005         2.570761
