19
Iteration:   304
 C        -1.192823         0.744953         2.187058
 C         0.144548         0.936042         1.683144
 C         0.951307         2.274794         1.411451
 C         2.205020         1.444480         1.175458
 O         1.807852         0.744177        -0.021716
 C         0.867073        -0.018704         0.784956
 C         0.308384        -1.289250         0.293444
 C         1.571953         0.331460         2.111834
 O         2.104591        -0.502526         3.116093
 H        -1.378028         0.987249         3.275161
 H        -1.834888         1.544926         1.742355
 H        -1.505146        -0.246601         2.008954
 H         0.606927         3.161480         0.746944
 H         0.998376         2.791911         2.391141
 H         3.182589         1.786274         1.179374
 H        -0.136469        -1.839666         1.030751
 H        -0.356301        -1.179339        -0.642714
 H         1.125798        -1.858633        -0.159221
 H         2.987386        -0.855497         2.865009
