19
Iteration:  2307
 C        -1.150899         0.661058         2.380372
 C         0.171497         0.986080         1.755868
 C         0.995597         2.341228         1.471596
 C         2.201493         1.431517         1.170531
 O         1.929482         0.711891        -0.044753
 C         0.882400        -0.009296         0.775617
 C         0.277169        -1.210418         0.186771
 C         1.480120         0.242712         1.988240
 O         2.019029        -0.509867         3.011250
 H        -1.270457         0.872984         3.470355
 H        -1.941184         1.278277         1.918510
 H        -1.322489        -0.413232         2.245904
 H         0.701730         2.973853         0.609056
 H         1.060610         2.947601         2.394637
 H         3.207742         1.708847         1.007681
 H         0.002387        -1.880899         1.011247
 H        -0.552728        -0.916972        -0.616351
 H         1.092576        -1.822645        -0.386603
 H         2.116717        -0.054371         3.840273
