19
Iteration:  4588charge 0 multiplicity 1
 C        -1.099605         0.644165         2.429563
 C         0.190967         0.979052         1.760007
 C         0.901268         2.249844         1.446328
 C         2.207037         1.411243         1.225641
 O         1.843741         0.766925        -0.038123
 C         0.924111        -0.014685         0.743162
 C         0.256569        -1.241017         0.028418
 C         1.497798         0.272529         2.022113
 O         2.124482        -0.379406         3.070896
 H        -1.044208         1.105724         3.467069
 H        -1.985534         1.035054         1.906991
 H        -1.093941        -0.528255         2.554113
 H         0.431353         2.658566         0.517913
 H         0.947352         3.010600         2.369287
 H         3.126465         1.969662         1.199810
 H         0.494722        -1.231052        -1.036206
 H         0.838161        -2.169102         0.475425
 H        -0.744662        -1.391328         0.295344
 H         1.564814        -1.021768         3.571892
