19
Iteration:  4829
 C        -1.110204         0.575332         2.181814
 C         0.283977         0.901316         1.799053
 C         0.894087         2.293090         1.458914
 C         2.237213         1.436150         1.127276
 O         1.780845         0.823821        -0.077702
 C         0.929926        -0.042551         0.751704
 C         0.138385        -1.129992         0.100649
 C         1.593139         0.217197         2.114435
 O         2.082194        -0.412301         3.277912
 H        -1.436576         1.158695         3.031651
 H        -1.668289         0.755805         1.299579
 H        -1.375276        -0.430993         2.547120
 H         0.513029         2.716439         0.580803
 H         1.079594         2.861758         2.406700
 H         3.228919         1.891089         1.180571
 H        -0.799369        -0.747911        -0.305415
 H         0.806553        -1.882192        -0.523878
 H        -0.140808        -1.835996         0.834945
 H         2.943245        -0.826730         3.058228
