19
Iteration:  4530charge 0 multiplicity 1
 C        -1.076817         0.723336         2.390026
 C         0.254146         0.947069         1.759842
 C         0.867968         2.308345         1.496793
 C         2.139581         1.401138         1.185003
 O         1.748229         0.863495        -0.130471
 C         0.959118        -0.022476         0.663607
 C         0.474336        -1.308884         0.229815
 C         1.580230         0.287139         2.020423
 O         1.913953        -0.597231         3.042290
 H        -1.024112         1.140220         3.424180
 H        -1.838128         1.446499         1.838085
 H        -1.567526        -0.259448         2.432773
 H         0.355321         3.014989         0.749702
 H         0.864938         2.840132         2.482902
 H         3.116003         1.917159         1.183879
 H        -0.112751        -1.341034        -0.704853
 H         1.362981        -1.875049         0.089106
 H        -0.076947        -1.832020         1.034383
 H         2.494548        -0.100154         3.635661
