19
Iteration:  3141
 C        -1.050108         0.769922         2.486892
 C         0.137573         0.997773         1.633607
 C         0.911112         2.337195         1.432897
 C         2.160441         1.425228         1.239926
 O         1.883367         0.666707        -0.136797
 C         0.937841         0.027212         0.720056
 C         0.428638        -1.267019         0.232999
 C         1.506273         0.284950         2.006058
 O         1.880277        -0.489470         3.096002
 H        -0.876854         0.892238         3.481157
 H        -1.882589         1.412127         2.143366
 H        -1.317048        -0.277287         2.329342
 H         0.744151         3.049791         0.568508
 H         1.184324         2.786649         2.407553
 H         3.272939         1.715624         1.342539
 H        -0.085564        -1.756703         1.028083
 H        -0.238762        -1.099048        -0.557678
 H         1.324977        -1.863355        -0.113268
 H         1.825701        -1.350579         2.701532
