19
Iteration:    29charge 0 multiplicity 1
 C        -1.098965         0.838236         2.393888
 C         0.281427         0.910502         1.806620
 C         0.900517         2.373268         1.409652
 C         2.191751         1.558930         0.968544
 O         1.777579         0.801321        -0.103251
 C         0.944754        -0.015694         0.726744
 C         0.588062        -1.368680         0.232870
 C         1.604586         0.206127         2.067582
 O         1.759800        -0.676738         3.164764
 H        -1.174732         1.473115         3.309458
 H        -1.754805         1.469964         1.717310
 H        -1.571061        -0.164559         2.473740
 H         0.335644         2.825632         0.542053
 H         0.991217         2.874587         2.386175
 H         3.217065         1.908165         0.846826
 H         0.117093        -1.967680         1.039465
 H        -0.291452        -1.139345        -0.499235
 H         1.401801        -1.906590        -0.311632
 H         1.739693        -0.163281         3.949123
