19
Iteration:  1636charge 0 multiplicity 1
 C        -1.190517         0.723736         2.296325
 C         0.136642         0.919555         1.650078
 C         0.924072         2.322417         1.544136
 C         2.202042         1.534637         1.290332
 O         1.926058         0.727196        -0.062995
 C         0.951121        -0.028928         0.679457
 C         0.318794        -1.341947         0.218629
 C         1.525865         0.273405         2.022069
 O         2.055130        -0.512467         3.030820
 H        -0.911172         1.106127         3.324350
 H        -2.003360         1.288255         1.807725
 H        -1.512374        -0.304574         2.378751
 H         0.470833         2.930247         0.676891
 H         0.879213         2.922099         2.415878
 H         3.183911         2.066181         1.248813
 H        -0.028636        -2.078081         1.020041
 H        -0.609073        -1.198114        -0.504467
 H         1.022699        -1.817682        -0.348089
 H         1.957360         0.054017         3.787012
