19
Iteration:  3313
 C        -1.116735         0.746260         2.411496
 C         0.200221         0.982761         1.756222
 C         0.963213         2.299422         1.468858
 C         2.255533         1.440278         1.121801
 O         1.786707         0.751986        -0.043963
 C         0.940762        -0.068709         0.759730
 C         0.402597        -1.284131         0.082166
 C         1.599782         0.292182         2.025330
 O         1.852123        -0.528701         3.072392
 H        -1.125621         1.014600         3.465590
 H        -1.974718         1.178104         1.790265
 H        -1.330265        -0.267010         2.435944
 H         0.729865         3.014498         0.762738
 H         0.917839         2.837867         2.338070
 H         3.335151         1.719713         1.188537
 H         0.264594        -1.966047         0.881855
 H        -0.632521        -1.086094        -0.285565
 H         1.086696        -1.734038        -0.641448
 H         2.116173         0.059252         3.807665
