19
Iteration:  1557
 C        -1.181058         0.785138         2.482317
 C         0.175635         0.938114         1.751001
 C         0.892132         2.289936         1.489324
 C         2.184991         1.472713         1.203969
 O         1.913285         0.766633        -0.110164
 C         0.971236        -0.014655         0.693083
 C         0.461094        -1.291905         0.179429
 C         1.582275         0.305898         1.994352
 O         1.903134        -0.608672         2.996470
 H        -1.769859         1.744366         2.546220
 H        -1.716758         0.299904         1.663137
 H        -1.148589         0.191284         3.405026
 H         0.502027         2.992875         0.722313
 H         0.749965         2.764090         2.486852
 H         3.105934         1.978051         1.083440
 H        -0.253056        -1.564006         0.940345
 H        -0.141016        -1.260341        -0.793496
 H         1.246341        -2.086853         0.098698
 H         1.888739        -0.171240         3.846712
