19
Iteration:  3948
 C        -1.023340         0.648368         2.559518
 C         0.201499         1.065098         1.777229
 C         0.922266         2.358517         1.491940
 C         2.177751         1.416661         1.176341
 O         1.877052         0.721537        -0.159440
 C         0.941738        -0.039899         0.614004
 C         0.366902        -1.236162         0.004918
 C         1.471025         0.249151         2.056109
 O         1.898476        -0.509529         3.130809
 H        -1.116752         1.199824         3.565046
 H        -1.885714         0.820837         1.997035
 H        -0.820401        -0.332071         2.855304
 H         0.565137         2.903972         0.545531
 H         0.965114         2.870638         2.443554
 H         3.242904         1.690608         1.084910
 H        -0.289904        -1.757028         0.723404
 H        -0.035816        -1.182501        -0.941904
 H         1.172602        -1.921626        -0.189839
 H         1.654814         0.017651         3.917428
