19
Iteration:  2070charge 0 multiplicity 1
 C        -1.175611         0.706133         2.173688
 C         0.257223         1.022500         1.915886
 C         0.869823         2.293223         1.539369
 C         2.191504         1.418725         1.174149
 O         1.844908         0.769754        -0.052964
 C         0.877607        -0.068716         0.803423
 C         0.145030        -1.109119         0.073239
 C         1.622962         0.209993         2.023464
 O         2.226449        -0.620305         3.082061
 H        -1.531436         0.404711         1.270162
 H        -1.376895        -0.186531         2.827288
 H        -1.813744         1.535552         2.456907
 H         0.447652         2.842526         0.712023
 H         1.055870         2.847552         2.484289
 H         3.119630         2.007995         1.407938
 H        -0.529330        -1.710219         0.797433
 H        -0.318523        -0.552820        -0.683287
 H         0.720874        -1.969622        -0.366205
 H         2.191117        -0.046952         3.901626
