19
Iteration:  4660charge 0 multiplicity 1
 C        -1.132943         0.639575         2.248843
 C         0.307639         0.955419         1.863903
 C         0.929601         2.314840         1.507342
 C         2.181550         1.515435         1.142066
 O         1.764337         0.770179        -0.080033
 C         0.941012        -0.037827         0.759299
 C         0.132929        -1.303611         0.061886
 C         1.598181         0.276961         2.072338
 O         2.086240        -0.458457         3.207845
 H        -1.456548         1.131812         3.119997
 H        -1.920128         0.696392         1.516450
 H        -0.979620        -0.307759         2.572602
 H         0.605791         2.776747         0.583245
 H         0.983011         2.932147         2.293859
 H         3.163055         1.984447         1.063936
 H         0.470291        -1.143956        -0.981152
 H         0.518862        -2.241651         0.354514
 H        -0.990882        -1.319760         0.211000
 H         3.056947        -0.578064         3.073291
