19
Iteration:   421charge 0 multiplicity 1
 C        -1.045066         0.599808         2.446192
 C         0.295961         0.960095         1.789843
 C         0.947800         2.288222         1.441284
 C         2.196703         1.490440         1.046370
 O         1.815701         0.743102        -0.085418
 C         0.964682        -0.054948         0.758924
 C         0.375606        -1.251953         0.066694
 C         1.602604         0.370302         2.103350
 O         1.747837        -0.508568         3.120899
 H        -1.478232         1.605054         2.821405
 H        -1.851002         0.196587         1.835749
 H        -0.934665         0.016102         3.354091
 H         0.531222         2.897084         0.640131
 H         1.227680         2.907203         2.252913
 H         3.187802         1.888233         0.844903
 H        -0.184289        -1.778889         0.760391
 H        -0.307300        -1.001936        -0.783607
 H         1.205976        -1.940058        -0.363953
 H         2.077924        -0.124440         3.947290
