19
Iteration:  2679
 C        -1.254848         0.756176         2.261279
 C         0.220286         0.988078         1.797609
 C         0.939233         2.324170         1.531623
 C         2.206900         1.350730         1.258005
 O         1.894119         0.742526         0.021327
 C         0.814943        -0.010787         0.726775
 C         0.177738        -1.194710         0.064060
 C         1.538934         0.240728         2.072777
 O         2.279443        -0.523304         2.954896
 H        -1.899940         0.581446         1.358071
 H        -1.526982         0.057850         3.102130
 H        -1.560829         1.739599         2.615955
 H         0.688148         2.988037         0.709576
 H         1.031534         2.839483         2.504090
 H         3.360769         1.522823         1.556302
 H        -0.457437        -1.709308         0.822764
 H        -0.297901        -0.899793        -0.860800
 H         0.884751        -2.031722        -0.037393
 H         1.852783        -0.805061         3.770579
