19
Iteration:  2699charge 0 multiplicity 1
 C        -1.190351         0.824072         2.340595
 C         0.192325         0.971328         1.661242
 C         0.979825         2.230042         1.543198
 C         2.191912         1.433874         1.235268
 O         1.798214         0.765766        -0.060489
 C         0.907191        -0.021006         0.722347
 C         0.281796        -1.175806         0.150574
 C         1.562984         0.227148         2.050891
 O         2.146015        -0.572420         3.059127
 H        -2.087664         0.648629         1.660423
 H        -1.104803        -0.139878         2.793999
 H        -1.409958         1.535466         3.106220
 H         0.709715         2.785436         0.676430
 H         1.126705         2.820272         2.390360
 H         3.287524         1.964054         1.341685
 H        -0.419108        -1.600680         0.806856
 H        -0.136155        -0.792036        -0.763951
 H         1.013927        -1.929397        -0.144507
 H         1.368752        -1.018037         3.413464
