19
Iteration:  2643charge 0 multiplicity 1
 C        -1.290411         0.773346         2.169498
 C         0.237501         0.868338         1.895994
 C         0.946803         2.318363         1.591839
 C         2.168282         1.416543         1.133546
 O         1.800859         0.725886        -0.038013
 C         1.028641        -0.093902         0.788047
 C         0.169434        -1.096800         0.098313
 C         1.600706         0.264525         2.082377
 O         2.232735        -0.611180         3.025551
 H        -1.771482         0.396851         1.204249
 H        -1.651699         0.242719         3.007634
 H        -1.673965         1.801386         2.220736
 H         0.409891         3.006646         0.938950
 H         1.217856         2.817418         2.474992
 H         3.302671         1.779137         1.313682
 H        -0.583733        -1.504271         0.717861
 H        -0.455475        -0.538517        -0.596587
 H         0.723947        -1.944327        -0.318781
 H         2.183707        -0.067325         3.833115
