19
Iteration:  2120charge 0 multiplicity 1
 C        -1.092178         0.743554         2.379358
 C         0.269700         0.983190         1.780153
 C         0.928362         2.328932         1.578659
 C         2.193624         1.402461         1.202282
 O         1.885736         0.835212        -0.100636
 C         0.865761        -0.041641         0.643474
 C         0.259794        -1.294540         0.085374
 C         1.515529         0.258614         2.001384
 O         1.996697        -0.556317         3.076978
 H        -2.106345         1.075960         1.829880
 H        -1.285779        -0.318282         2.547952
 H        -1.007477         1.285119         3.339930
 H         0.505897         2.820752         0.681396
 H         1.086252         2.856803         2.537822
 H         3.296563         1.740168         1.326100
 H         0.125080        -2.039282         0.848287
 H        -0.533812        -1.105934        -0.650191
 H         1.146364        -1.776845        -0.430364
 H         1.925430        -0.322730         4.002440
