19
Iteration:   882charge 0 multiplicity 1
 C        -1.077493         0.696310         2.375336
 C         0.231104         0.969183         1.755490
 C         0.908649         2.329829         1.547535
 C         2.156083         1.384717         1.239969
 O         1.872471         0.748446        -0.069422
 C         0.829908         0.007026         0.686299
 C         0.305335        -1.212625         0.093061
 C         1.517542         0.298368         2.014739
 O         2.036884        -0.601559         3.032737
 H        -1.681855        -0.023621         1.766005
 H        -0.802539         0.191465         3.328462
 H        -1.710426         1.537316         2.662040
 H         0.669092         3.009015         0.737033
 H         1.144132         2.958996         2.425273
 H         3.233512         1.865499         1.261247
 H        -0.393247        -1.667191         0.755923
 H        -0.296363        -0.687213        -0.688807
 H         1.005876        -1.936666        -0.298934
 H         2.384414        -0.035572         3.794357
