19
Iteration:  2128
 C        -1.043408         0.701313         2.420048
 C         0.227423         0.972396         1.806762
 C         0.957037         2.324936         1.535143
 C         2.252922         1.439940         1.166656
 O         1.850340         0.793564        -0.107431
 C         0.879161         0.036208         0.664230
 C         0.348775        -1.293614         0.067252
 C         1.466488         0.246687         2.051653
 O         1.949447        -0.597968         3.054214
 H        -1.744616         1.330111         1.870359
 H        -1.388633        -0.298343         2.560131
 H        -0.982754         1.136165         3.424992
 H         0.549143         2.953748         0.733072
 H         0.940393         3.006463         2.362272
 H         3.132597         1.937812         1.295483
 H         0.037792        -1.865494         0.899641
 H        -0.625607        -1.325110        -0.547402
 H         1.111150        -1.717694        -0.461973
 H         1.673330        -0.183272         3.876611
