19
Iteration:  1419
 C        -1.116486         0.756784         2.410722
 C         0.213546         1.055747         1.769744
 C         0.979401         2.322401         1.500008
 C         2.152332         1.502342         1.267980
 O         1.871688         0.757400        -0.106086
 C         0.924511        -0.013291         0.732908
 C         0.464777        -1.345008         0.165489
 C         1.506425         0.318186         2.001309
 O         1.874806        -0.664159         2.932406
 H        -1.818561         0.143243         1.823399
 H        -0.979429         0.152476         3.329853
 H        -1.644544         1.656455         2.745884
 H         0.518422         3.049746         0.809675
 H         1.115974         2.885492         2.420069
 H         3.269197         1.740358         1.372414
 H         0.158088        -2.112872         0.948853
 H        -0.429853        -1.231983        -0.448260
 H         1.233539        -1.602149        -0.436442
 H         1.695639        -0.098983         3.734332
