19
Iteration:   454
 C        -1.049104         0.716127         2.460697
 C         0.191320         0.976451         1.709447
 C         0.914723         2.377699         1.375819
 C         2.129552         1.487731         1.178503
 O         1.905378         0.780141        -0.023194
 C         0.961535         0.019335         0.689441
 C         0.369552        -1.354275         0.218851
 C         1.576561         0.294608         2.067702
 O         1.885725        -0.616652         2.977066
 H        -1.212064         1.706234         2.995015
 H        -1.951051         0.465815         1.936395
 H        -0.930447         0.001579         3.270849
 H         0.569362         2.806063         0.433941
 H         1.087274         3.109558         2.107295
 H         3.125969         1.882245         1.195063
 H         0.083952        -1.838411         1.061529
 H        -0.480824        -1.378976        -0.441523
 H         1.181635        -1.989291        -0.281584
 H         1.298421        -0.350992         3.758128
