19
Iteration:  3260charge 0 multiplicity 1
 C        -1.122435         0.681682         2.316797
 C         0.208016         0.884651         1.697411
 C         0.947521         2.268767         1.503497
 C         2.179126         1.420585         1.258564
 O         1.890920         0.702349        -0.060036
 C         1.007674        -0.108259         0.771871
 C         0.134164        -1.138552         0.108574
 C         1.554726         0.259243         2.032102
 O         2.079197        -0.336063         3.101640
 H        -1.271177         1.412129         3.043891
 H        -2.032719         0.672250         1.565941
 H        -1.130037        -0.287951         2.728317
 H         0.738853         2.843996         0.597711
 H         1.022562         2.939364         2.329493
 H         3.234669         1.822775         1.408969
 H        -0.522931        -1.637627         0.820334
 H        -0.475228        -0.629461        -0.663711
 H         0.918921        -1.788113        -0.419734
 H         1.656369        -1.178811         3.370066
