19
Iteration:  3673
 C        -1.094875         0.586004         2.325970
 C         0.251417         0.990590         1.830669
 C         0.966306         2.249087         1.471417
 C         2.193426         1.465910         1.187091
 O         1.849820         0.716579        -0.040799
 C         0.889003        -0.053842         0.763639
 C         0.182420        -1.214658        -0.003767
 C         1.576427         0.289688         2.104219
 O         2.063361        -0.407161         3.101192
 H        -1.434657         1.454373         3.040110
 H        -1.749346         0.601339         1.466544
 H        -1.011316        -0.386899         2.840651
 H         0.642579         2.818291         0.649306
 H         1.148604         2.841293         2.327088
 H         3.212108         1.897423         1.056006
 H        -0.708975        -1.562978         0.526456
 H        -0.043819        -0.730808        -1.051558
 H         0.866451        -2.062407        -0.110751
 H         1.462088        -0.330577         3.853316
