19
Iteration:  1154charge 0 multiplicity 1
 C        -1.173013         0.709350         2.290510
 C         0.200509         0.976191         1.786736
 C         0.950939         2.314496         1.573764
 C         2.215020         1.405762         1.299626
 O         1.981818         0.790717         0.046996
 C         0.864492         0.027988         0.710551
 C         0.146118        -1.172308         0.146687
 C         1.530790         0.265939         2.039512
 O         2.116866        -0.669054         2.822629
 H        -1.518287         1.670505         2.755238
 H        -1.958533         0.465302         1.604109
 H        -1.216750         0.005423         3.098345
 H         0.610491         2.968036         0.663315
 H         1.029361         2.761104         2.584990
 H         3.181315         1.991366         1.481287
 H        -0.587776        -1.619270         0.802809
 H        -0.470008        -1.082016        -0.882483
 H         1.021637        -1.825469        -0.203316
 H         2.079687        -0.373298         3.717336
