19
Iteration:  1031
 C        -1.023880         0.677676         2.510035
 C         0.264465         1.060405         1.804219
 C         0.937975         2.285931         1.458887
 C         2.212418         1.532195         1.277808
 O         1.863393         0.835524        -0.061738
 C         1.001685        -0.021416         0.634662
 C         0.321262        -1.209666         0.075649
 C         1.514747         0.232805         2.016077
 O         1.813071        -0.698301         2.957028
 H        -0.810621         0.806943         3.578342
 H        -1.938032         1.273531         2.464912
 H        -1.192012        -0.420487         2.341880
 H         0.594505         2.942867         0.551452
 H         1.227399         2.703706         2.437349
 H         3.137521         2.040838         1.170415
 H         0.006108        -1.853588         0.946444
 H        -0.604998        -0.963090        -0.553877
 H         1.036923        -1.810814        -0.706669
 H         1.532021        -0.368798         3.818704
