19
Iteration:  3880charge 0 multiplicity 1
 C        -1.181732         0.712945         2.300292
 C         0.221445         0.932781         1.765223
 C         0.865413         2.283459         1.477247
 C         2.211018         1.453024         1.129259
 O         1.836460         0.723994        -0.073451
 C         0.937995        -0.040857         0.763324
 C         0.300976        -1.169150         0.169217
 C         1.581205         0.275201         2.107383
 O         2.102976        -0.547062         3.061628
 H        -1.288843         0.542018         3.366820
 H        -1.819883         1.536552         2.195793
 H        -1.756628        -0.154159         2.005042
 H         0.644344         2.876625         0.562320
 H         0.937108         2.808259         2.415510
 H         3.153413         2.030010         1.037435
 H        -0.323116        -1.753770         0.813193
 H        -0.233432        -0.905175        -0.760033
 H         1.060389        -1.805219        -0.198868
 H         1.924918        -0.137282         3.916513
