19
Iteration:  4015charge 0 multiplicity 1
 C        -1.268129         0.752746         2.274930
 C         0.209273         0.927591         1.832194
 C         0.931843         2.265607         1.543275
 C         2.245755         1.507501         1.179816
 O         1.907121         0.791729        -0.052155
 C         0.908136        -0.062078         0.716744
 C         0.161380        -1.286378         0.199445
 C         1.642382         0.310951         2.077785
 O         2.113363        -0.582243         2.945725
 H        -1.710105         1.608467         2.829888
 H        -1.688603         0.618192         1.301706
 H        -1.296497        -0.138478         2.817247
 H         0.541839         2.875143         0.656333
 H         0.971084         2.907447         2.453514
 H         3.191452         2.039216         1.292839
 H        -0.268185        -1.749103         1.075542
 H        -0.497095        -1.114606        -0.584680
 H         1.001769        -1.913550        -0.180783
 H         2.025396        -0.236713         3.856346
