19
Iteration:  2038
 C        -1.193039         0.676322         2.252626
 C         0.222220         0.960997         1.761941
 C         0.890733         2.230405         1.482152
 C         2.222806         1.419670         1.209037
 O         1.861445         0.821201        -0.051724
 C         0.915356        -0.052897         0.834500
 C         0.200207        -1.125079         0.172308
 C         1.618953         0.340425         2.104024
 O         2.141665        -0.649390         2.957450
 H        -1.752312         0.453976         1.379083
 H        -1.212976        -0.150237         3.012456
 H        -1.708847         1.528492         2.704283
 H         0.536442         2.900605         0.721999
 H         0.955990         2.827988         2.400141
 H         3.209036         1.858307         1.377404
 H        -0.721960        -1.333319         0.811440
 H        -0.252675        -0.675093        -0.688467
 H         0.818287        -1.924723        -0.180179
 H         2.120609        -0.395948         3.877404
