19
Iteration:  1599
 C        -1.085358         0.682241         2.370264
 C         0.253449         1.049376         1.755695
 C         0.871785         2.354123         1.482361
 C         2.252490         1.573104         1.143492
 O         1.782447         0.761360        -0.083018
 C         0.907042         0.066537         0.729922
 C         0.499748        -1.370023         0.292197
 C         1.560612         0.296057         2.027069
 O         1.805797        -0.700010         2.988085
 H        -1.507969         1.520498         3.003812
 H        -1.865899         0.698149         1.558949
 H        -1.241915        -0.272709         2.976437
 H         0.845297         2.800387         0.515453
 H         1.233880         3.138289         2.280727
 H         3.206091         2.049290         1.062625
 H         0.241462        -2.036077         1.059694
 H        -0.151632        -1.285475        -0.552161
 H         1.498700        -1.817501        -0.188172
 H         1.760613        -0.353362         3.894417
