19
Iteration:  1613charge 0 multiplicity 1
 C        -1.147570         0.733184         2.339258
 C         0.211680         0.984496         1.792512
 C         0.974491         2.320937         1.444720
 C         2.154829         1.465220         1.155565
 O         1.878235         0.817287        -0.100101
 C         0.941577        -0.029545         0.730301
 C         0.501162        -1.297940         0.269774
 C         1.520746         0.312374         2.040897
 O         1.854037        -0.619378         2.970589
 H        -1.288731         1.346359         3.305689
 H        -1.991886         0.713652         1.645565
 H        -1.109781        -0.299232         2.710205
 H         0.324601         2.930791         0.765060
 H         0.936694         2.857154         2.402114
 H         3.175339         1.835910         1.170434
 H         0.211907        -1.862401         1.217594
 H        -0.471879        -1.322482        -0.405998
 H         1.292735        -1.841968        -0.165896
 H         1.879028        -0.145318         3.849236
