19
Iteration:  2669charge 0 multiplicity 1
 C        -1.266554         0.824541         2.201257
 C         0.218832         0.989114         1.874092
 C         0.965305         2.316987         1.621345
 C         2.171799         1.390422         1.285357
 O         1.881490         0.681480         0.014495
 C         0.907777        -0.049655         0.712896
 C         0.146032        -1.227283         0.044589
 C         1.493144         0.257348         2.077130
 O         2.328002        -0.525385         2.930938
 H        -1.763131         0.335527         1.359698
 H        -1.379832        -0.012513         2.988398
 H        -1.807469         1.731925         2.499951
 H         0.501505         2.819164         0.749581
 H         1.227262         3.073391         2.420292
 H         3.265128         1.746108         1.444598
 H        -0.708684        -1.459683         0.754377
 H        -0.438798        -1.024852        -0.875635
 H         0.886613        -1.963315        -0.316716
 H         1.803615        -0.521459         3.759808
