19
Iteration:  1367charge 0 multiplicity 1
 C        -1.126422         0.837265         2.352148
 C         0.246932         0.970695         1.797471
 C         0.898275         2.343079         1.574403
 C         2.153919         1.465949         1.223750
 O         1.840384         0.819207        -0.060794
 C         0.945850        -0.023125         0.669065
 C         0.433242        -1.298488         0.145150
 C         1.552653         0.252107         2.052656
 O         1.949575        -0.712898         2.942725
 H        -1.383444        -0.188131         2.421073
 H        -1.272277         1.290856         3.361707
 H        -1.814648         1.450490         1.727710
 H         0.605340         2.911464         0.723410
 H         0.833260         2.896989         2.558212
 H         3.171925         1.836348         1.020854
 H        -0.270742        -1.666115         0.958448
 H        -0.218624        -1.173331        -0.681399
 H         1.300727        -2.001756        -0.093963
 H         1.716016        -0.390496         3.820406
