19
Iteration:  3830charge 0 multiplicity 1
 C        -1.255278         0.799287         2.175999
 C         0.148021         0.935589         1.756033
 C         0.882181         2.217195         1.508754
 C         2.197579         1.434788         1.259750
 O         1.847603         0.752622        -0.058240
 C         0.893437         0.034709         0.709508
 C         0.334817        -1.195051         0.310318
 C         1.587140         0.279019         2.032113
 O         2.178114        -0.613815         2.975156
 H        -1.510276         0.701042         3.250290
 H        -1.889789         1.719283         1.951962
 H        -1.859312        -0.036905         1.872723
 H         0.542332         2.761914         0.661029
 H         0.968096         2.829655         2.426852
 H         3.190651         1.844722         1.424111
 H         0.165238        -1.775285         1.285919
 H        -0.573411        -1.178381        -0.246704
 H         1.059955        -1.819052        -0.334719
 H         2.603838        -0.096709         3.710461
