19
Iteration:   169
 C        -1.126989         0.690965         2.214146
 C         0.193804         0.926384         1.632000
 C         0.964655         2.274180         1.546218
 C         2.214031         1.454512         1.243143
 O         1.867889         0.670134        -0.016061
 C         0.881541        -0.081847         0.802893
 C         0.109044        -1.238690         0.108466
 C         1.568087         0.193309         2.056206
 O         2.226152        -0.290002         3.113494
 H        -1.630024         1.527778         2.778344
 H        -1.930924         0.536337         1.494076
 H        -1.089433        -0.309606         2.710791
 H         0.755265         2.913222         0.629697
 H         0.772060         2.711451         2.575171
 H         3.158992         2.018644         1.202022
 H        -0.830095        -1.535693         0.650278
 H        -0.120286        -0.930244        -0.874628
 H         0.763790        -2.099223        -0.134442
 H         1.569509        -0.296395         3.885502
