19
Iteration:  1898
 C        -1.122965         0.595885         2.232595
 C         0.230830         0.987437         1.697507
 C         0.902727         2.314758         1.486671
 C         2.221712         1.533902         1.194973
 O         1.852307         0.702502         0.008563
 C         0.895858        -0.007714         0.770085
 C         0.185313        -1.169483         0.111383
 C         1.619289         0.230443         2.085880
 O         2.091754        -0.540093         3.083845
 H        -1.617295         1.566596         2.567720
 H        -1.724766         0.027978         1.528421
 H        -1.188107        -0.040488         3.080018
 H         0.486066         3.101153         0.745871
 H         0.924691         2.777210         2.498670
 H         3.265345         1.767996         1.123311
 H        -0.406198        -1.697325         0.934608
 H        -0.535762        -0.764433        -0.731999
 H         0.814356        -1.857344        -0.389395
 H         2.248903        -0.063693         3.925074
