19
Iteration:  3897
 C        -1.071227         0.714171         2.384516
 C         0.272280         0.926051         1.786321
 C         0.912274         2.234641         1.464967
 C         2.143098         1.487571         1.155289
 O         1.816218         0.844949        -0.140499
 C         0.925711        -0.047167         0.718893
 C         0.308840        -1.285208         0.098837
 C         1.579632         0.248314         2.053359
 O         2.005251        -0.509425         3.159300
 H        -1.026658         0.667497         3.498023
 H        -1.610292         1.663715         1.960867
 H        -1.486407        -0.308534         1.992761
 H         0.301084         2.781893         0.734680
 H         1.240904         2.862962         2.354527
 H         3.180953         1.741330         1.278375
 H        -0.470435        -1.631007         0.822652
 H        -0.222728        -1.006263        -0.863130
 H         1.020204        -2.150203        -0.257952
 H         1.643991        -0.086746         3.939815
