19
Iteration:  1206charge 0 multiplicity 1
 C        -1.006861         0.771300         2.446448
 C         0.290465         0.943025         1.784924
 C         0.965071         2.337000         1.591390
 C         2.214047         1.491591         1.109576
 O         1.780947         0.869786        -0.067813
 C         0.841127         0.004441         0.715956
 C         0.457654        -1.265273         0.053239
 C         1.614642         0.266020         2.031721
 O         1.786051        -0.757295         3.018155
 H        -1.222851         1.161528         3.469378
 H        -1.687686         1.277965         1.686003
 H        -1.501106        -0.241108         2.331480
 H         0.660195         3.192850         0.906198
 H         0.906626         2.885829         2.547672
 H         3.234797         1.741728         1.056244
 H         0.211901        -1.947456         0.808306
 H        -0.528264        -1.215117        -0.359414
 H         1.312581        -1.726521        -0.577925
 H         1.582919        -0.268921         3.832421
