19
Iteration:  1807charge 0 multiplicity 1
 C        -1.158993         0.834389         2.386153
 C         0.185785         0.995253         1.820086
 C         0.875200         2.287477         1.470129
 C         2.112243         1.403038         1.164015
 O         1.922065         0.758505        -0.062270
 C         0.930162        -0.039223         0.701711
 C         0.482512        -1.310315         0.183833
 C         1.471518         0.305510         1.999358
 O         1.965909        -0.585346         3.000818
 H        -0.895916         0.656361         3.415853
 H        -1.732558         1.758328         2.207933
 H        -1.771252        -0.053639         2.057107
 H         0.465032         2.808239         0.608542
 H         1.124159         2.873916         2.420134
 H         3.142898         1.857332         1.170672
 H         0.230228        -1.874098         1.092692
 H        -0.227134        -1.244437        -0.644931
 H         1.369318        -1.959462        -0.148237
 H         1.861915        -0.067110         3.802768
