19
Iteration:    30charge 0 multiplicity 1
 C        -1.097385         0.835224         2.400573
 C         0.277606         0.915375         1.797432
 C         0.899608         2.392326         1.410827
 C         2.187787         1.560368         0.966018
 O         1.770662         0.796505        -0.090555
 C         0.957553        -0.023254         0.735774
 C         0.594542        -1.372457         0.238347
 C         1.601290         0.201822         2.058682
 O         1.756487        -0.679138         3.155012
 H        -1.151763         1.457268         3.279045
 H        -1.742283         1.476579         1.731082
 H        -1.560812        -0.112418         2.471237
 H         0.353253         2.833505         0.566377
 H         0.985374         2.855611         2.364451
 H         3.208133         1.866312         0.844927
 H         0.163373        -1.936071         0.996796
 H        -0.299378        -1.138384        -0.492231
 H         1.399138        -1.909009        -0.311107
 H         1.712126        -0.148858         3.935110
