19
Iteration:  2676
 C        -1.266937         0.774517         2.254655
 C         0.249766         0.984226         1.817079
 C         0.941230         2.331566         1.568420
 C         2.202580         1.362997         1.259605
 O         1.889307         0.721796         0.026527
 C         0.833730        -0.027282         0.717187
 C         0.161640        -1.215394         0.057211
 C         1.508810         0.263674         2.079736
 O         2.303883        -0.525490         2.942769
 H        -1.881499         0.463968         1.333177
 H        -1.509878         0.068057         2.992203
 H        -1.629768         1.739469         2.568807
 H         0.625331         2.911956         0.725147
 H         1.114487         2.910974         2.421073
 H         3.319879         1.548222         1.600960
 H        -0.501491        -1.532429         0.794944
 H        -0.323875        -0.998461        -0.889108
 H         0.889153        -1.986758        -0.188140
 H         1.808376        -0.715232         3.794519
