19
Iteration:  1540charge 0 multiplicity 1
 C        -1.179942         0.751334         2.351742
 C         0.187068         0.953643         1.703723
 C         0.858927         2.283524         1.540730
 C         2.171143         1.496438         1.225817
 O         1.970255         0.786008        -0.007010
 C         0.907690        -0.064745         0.664397
 C         0.312043        -1.348755         0.110056
 C         1.509888         0.243497         1.991708
 O         2.060993        -0.510732         3.039331
 H        -1.502292         1.766276         2.518496
 H        -2.045930         0.142121         2.011063
 H        -0.947187         0.383692         3.365155
 H         0.455818         2.986447         0.780254
 H         1.134832         2.922403         2.394622
 H         3.280398         1.823249         1.400787
 H        -0.601434        -1.731956         0.682614
 H        -0.162929        -1.220138        -0.865984
 H         1.140062        -2.023487        -0.020661
 H         2.109380         0.006680         3.861566
