19
Iteration:  4136charge 0 multiplicity 1
 C        -1.045574         0.674309         2.483683
 C         0.256046         0.987537         1.702177
 C         0.954015         2.354536         1.505498
 C         2.155842         1.470017         1.213039
 O         1.841398         0.669733        -0.083665
 C         0.959546        -0.064109         0.653726
 C         0.319050        -1.228322         0.099928
 C         1.569751         0.255644         1.979910
 O         1.902430        -0.469814         3.070787
 H        -0.868517         1.045982         3.614123
 H        -2.027348         1.175206         2.325059
 H        -1.153281        -0.398970         2.584814
 H         0.585270         2.888644         0.623242
 H         0.828436         2.997573         2.357884
 H         3.182215         1.752770         1.059471
 H        -0.171833        -1.641618         0.952508
 H        -0.215844        -1.148599        -0.790070
 H         1.266661        -1.796169        -0.188710
 H         1.208686        -0.228199         3.713750
