19
Iteration:  2660charge 0 multiplicity 1
 C        -1.256028         0.821269         2.142843
 C         0.144948         1.053685         1.948317
 C         0.965090         2.270459         1.627855
 C         2.143106         1.435308         1.285764
 O         1.882108         0.673283        -0.028297
 C         0.980500        -0.097405         0.744289
 C         0.133241        -1.168660         0.055356
 C         1.556333         0.167510         2.043789
 O         2.303149        -0.521049         2.941580
 H        -1.736619         0.396491         1.293552
 H        -1.299806         0.168489         3.089985
 H        -1.890296         1.700857         2.421509
 H         0.556489         2.929225         0.782795
 H         1.158085         2.963772         2.552571
 H         3.054551         1.847693         1.145426
 H        -0.611662        -1.813730         0.701813
 H        -0.369385        -0.638123        -0.793852
 H         0.734817        -2.100492        -0.145260
 H         2.007061        -0.438536         3.870238
