19
Iteration:   264
 C        -1.153907         0.795157         2.493331
 C         0.220636         0.958009         1.768633
 C         0.895448         2.331436         1.464433
 C         2.183513         1.441082         1.116922
 O         1.975330         0.740146        -0.098536
 C         0.918584        -0.070533         0.681532
 C         0.415884        -1.430126         0.213695
 C         1.572337         0.360242         1.988949
 O         1.794733        -0.488292         3.009863
 H        -1.111407         0.928251         3.553370
 H        -1.823779         1.583149         2.057814
 H        -1.609897        -0.209750         2.175754
 H         0.598224         3.011693         0.707655
 H         1.078621         2.793449         2.453597
 H         3.276905         1.928372         1.244031
 H         0.185596        -2.042750         1.225275
 H        -0.504651        -1.384870        -0.340420
 H         1.149595        -1.977201        -0.348402
 H         2.363244        -0.041337         3.659617
