19
Iteration:  2732
 C        -1.012070         0.749428         2.490656
 C         0.289945         1.001136         1.804394
 C         0.955683         2.280391         1.555208
 C         2.183435         1.507073         1.103824
 O         1.892239         0.766547        -0.091626
 C         0.861971        -0.001626         0.689453
 C         0.316021        -1.328833         0.097014
 C         1.603124         0.240206         1.945040
 O         1.825310        -0.504627         3.109463
 H        -1.792825         1.407542         1.973224
 H        -1.269912        -0.281443         2.389984
 H        -1.097931         0.943056         3.534613
 H         0.510677         2.827146         0.756910
 H         1.188708         2.922953         2.355845
 H         3.247612         2.100286         1.187874
 H        -0.272375        -1.968592         0.709500
 H        -0.267632        -1.100913        -0.780935
 H         1.193645        -1.889303        -0.163439
 H         1.260904        -1.276350         3.233421
