19
Iteration:  3219charge 0 multiplicity 1
 C        -1.199288         0.708805         2.222698
 C         0.251896         0.978450         1.797679
 C         1.012430         2.280066         1.527402
 C         2.163491         1.445229         1.193257
 O         1.832128         0.681905        -0.066200
 C         0.862559        -0.103338         0.794732
 C         0.151317        -1.208207         0.026426
 C         1.651597         0.261068         2.061584
 O         2.101977        -0.380211         3.216078
 H        -1.488521         1.412392         2.959411
 H        -1.864834         0.708278         1.404663
 H        -1.411485        -0.228370         2.814290
 H         0.703213         3.054136         0.776682
 H         1.038694         2.943925         2.432615
 H         3.187877         1.812939         1.198132
 H        -0.765360        -1.658299         0.460131
 H        -0.085270        -0.863809        -0.942955
 H         0.800017        -2.081990        -0.110606
 H         2.772832        -1.024972         2.845250
