19
Iteration:  4399charge 0 multiplicity 1
 C        -1.176104         0.598090         2.433004
 C         0.126178         0.979675         1.677924
 C         0.982104         2.348796         1.545251
 C         2.299111         1.376332         1.209466
 O         1.831070         0.719357        -0.131370
 C         0.908877        -0.087948         0.652538
 C         0.281528        -1.189178         0.020048
 C         1.488566         0.312758         2.032092
 O         2.077987        -0.405644         3.193275
 H        -1.361763         0.991676         3.417714
 H        -2.007180         0.576989         1.815963
 H        -1.029625        -0.429412         2.666925
 H         0.649000         2.984327         0.716222
 H         1.221329         2.794656         2.484857
 H         3.388958         1.672515         1.247721
 H        -0.692454        -1.421943         0.470968
 H         0.129836        -1.089912        -0.994370
 H         1.005031        -2.068097         0.086448
 H         1.787887         0.153265         3.958551
