19
Iteration:   244charge 0 multiplicity 1
 C        -1.035924         0.818260         2.465873
 C         0.174916         0.969001         1.623792
 C         0.915851         2.338115         1.372285
 C         2.212651         1.517751         1.069883
 O         1.808493         0.678529        -0.068705
 C         0.941523        -0.019742         0.733993
 C         0.472436        -1.293679         0.204111
 C         1.504869         0.271404         2.082899
 O         1.859319        -0.608801         3.133709
 H        -0.718173         0.961750         3.496619
 H        -1.901269         1.379586         2.187130
 H        -1.442892        -0.252334         2.444301
 H         0.585510         2.920017         0.556047
 H         1.038223         2.893812         2.309968
 H         3.225081         2.082222         1.058986
 H         0.204863        -2.196684         0.907742
 H        -0.328328        -1.147396        -0.477054
 H         1.382925        -1.592211        -0.364497
 H         1.584854        -0.140828         3.910934
