19
Iteration:  4464
 C        -1.245967         0.725961         2.231497
 C         0.195786         0.943599         1.802159
 C         0.842178         2.245644         1.430800
 C         2.186407         1.525312         1.181024
 O         1.831709         0.795456        -0.052078
 C         0.910730         0.002138         0.793761
 C         0.260717        -1.212098         0.219910
 C         1.643268         0.210993         2.116906
 O         2.218993        -0.602448         3.035046
 H        -1.538472         1.411358         3.032096
 H        -1.861552         0.947835         1.292116
 H        -1.457270        -0.289525         2.446264
 H         0.577368         2.872659         0.494121
 H         1.070450         2.975007         2.208576
 H         3.115406         2.125202         1.058026
 H        -0.824236        -1.227266         0.095652
 H         0.697665        -1.288732        -0.681174
 H         0.655362        -2.091861         0.796027
 H         1.803776        -0.582261         3.930732
