19
Iteration:   607charge 0 multiplicity 1
 C        -1.092933         0.715391         2.489730
 C         0.302098         1.011304         1.838102
 C         0.827909         2.353447         1.345466
 C         2.230148         1.453859         1.082750
 O         1.871314         0.719873        -0.083170
 C         0.911878        -0.027808         0.722365
 C         0.355567        -1.267425         0.141000
 C         1.636174         0.254672         1.997163
 O         1.848036        -0.574474         3.145160
 H        -1.124142         0.362040         3.524978
 H        -1.564201         1.662957         2.503509
 H        -1.629680         0.028395         1.874739
 H         0.278211         2.758019         0.440469
 H         1.064078         3.111133         2.078911
 H         3.246165         1.876734         1.130114
 H        -0.111897        -1.934306         0.776027
 H        -0.180768        -1.107866        -0.776252
 H         1.386523        -1.766800        -0.175845
 H         1.632914        -0.000513         3.941850
