19
Iteration:  2776charge 0 multiplicity 1
 C        -1.060200         0.726376         2.493513
 C         0.216235         1.020822         1.695666
 C         0.980991         2.323882         1.450054
 C         2.232563         1.415232         1.269332
 O         1.868849         0.744004        -0.049233
 C         0.831293        -0.067404         0.699325
 C         0.298192        -1.297588         0.011416
 C         1.556502         0.259246         1.991523
 O         1.856806        -0.431102         3.122429
 H        -1.671386         1.591511         2.859999
 H        -1.661785        -0.029823         2.012113
 H        -0.765397         0.196974         3.383719
 H         0.766404         2.975159         0.633719
 H         1.062413         2.897420         2.358666
 H         3.350525         1.893779         1.278633
 H        -0.103618        -1.858066         0.829689
 H        -0.444409        -1.113018        -0.717490
 H         1.089392        -1.944495        -0.268750
 H         2.648471        -0.933473         2.838802
