19
Iteration:  3226
 C        -1.231238         0.702252         2.241034
 C         0.246654         0.976917         1.765071
 C         0.954745         2.319638         1.582048
 C         2.210531         1.445479         1.163841
 O         1.895319         0.678021        -0.074887
 C         0.847039        -0.078857         0.756085
 C         0.090725        -1.204260         0.003983
 C         1.623300         0.225140         2.089971
 O         2.150075        -0.356256         3.237490
 H        -1.584963         1.352634         3.063545
 H        -1.977316         0.621519         1.334962
 H        -1.262046        -0.182184         2.832090
 H         0.782516         2.907106         0.672910
 H         1.118451         2.959218         2.409008
 H         3.286486         1.805584         1.243629
 H        -0.694500        -1.757730         0.521846
 H        -0.226574        -0.995716        -1.070221
 H         0.866257        -2.068154        -0.006936
 H         2.626483        -1.175421         2.893898
