19
Iteration:  4066
 C        -1.297372         0.797991         2.122941
 C         0.195873         0.979783         1.855960
 C         0.914220         2.327948         1.556672
 C         2.212433         1.468120         1.095850
 O         1.790652         0.796795        -0.065037
 C         0.877815        -0.013300         0.787200
 C         0.279597        -1.361446         0.212134
 C         1.654937         0.267982         2.134019
 O         2.166660        -0.642942         3.028122
 H        -1.274568         1.210718         3.157434
 H        -1.772433         1.501565         1.402622
 H        -1.407854        -0.334353         2.167281
 H         0.457079         2.988239         0.831642
 H         1.058504         2.833224         2.449702
 H         3.224977         1.977820         1.061134
 H        -0.065863        -1.928214         1.135568
 H        -0.512086        -0.958795        -0.524432
 H         1.027103        -1.802872        -0.436760
 H         2.457164        -0.317597         3.878305
