19
Iteration:  1870charge 0 multiplicity 1
 C        -1.203735         0.619557         2.130889
 C         0.238466         1.042441         1.946833
 C         0.920338         2.263088         1.491656
 C         2.122284         1.469576         1.221773
 O         1.788787         0.691664        -0.115339
 C         1.007321        -0.046911         0.776534
 C         0.204879        -1.120509         0.145206
 C         1.675346         0.242132         2.096974
 O         2.133176        -0.506755         3.087104
 H        -1.652954         1.333158         2.779943
 H        -1.822327         0.613725         1.136427
 H        -1.433144        -0.416970         2.582397
 H         0.620883         2.877317         0.700700
 H         1.091650         2.936549         2.311401
 H         3.178049         1.728696         1.159535
 H        -0.458509        -1.572010         0.776302
 H        -0.351990        -0.740378        -0.624532
 H         0.902666        -1.911413        -0.367543
 H         2.160743        -0.199257         3.992813
