19
Iteration:  2760
 C        -1.013922         0.661858         2.543236
 C         0.156491         0.992249         1.584332
 C         1.065010         2.351326         1.456999
 C         2.190480         1.356627         1.185602
 O         1.828537         0.798382        -0.073172
 C         0.914898        -0.005964         0.701800
 C         0.375383        -1.278266         0.144040
 C         1.436826         0.309473         1.979509
 O         1.872480        -0.473487         3.153645
 H        -1.584613         1.579374         2.559055
 H        -1.662299        -0.221419         2.241392
 H        -0.764501         0.463939         3.639319
 H         0.838650         3.099381         0.600250
 H         1.135105         2.950902         2.414147
 H         3.146473         1.567147         1.281414
 H        -0.319571        -2.011225         0.679947
 H        -0.294912        -0.904914        -0.724702
 H         1.254038        -1.719657        -0.430009
 H         2.084114        -1.398215         3.015231
