19
Iteration:  3887
 C        -1.107896         0.688161         2.342915
 C         0.212328         0.913760         1.797657
 C         0.910045         2.228431         1.449814
 C         2.161225         1.418859         1.076211
 O         1.852133         0.820274        -0.081926
 C         0.961795        -0.045652         0.758918
 C         0.280501        -1.196097         0.154197
 C         1.517430         0.285230         2.070422
 O         2.076007        -0.536824         3.117320
 H        -1.094732         0.727392         3.455047
 H        -1.741500         1.653424         2.016692
 H        -1.742638        -0.141359         1.753931
 H         0.518446         2.894825         0.712833
 H         0.966372         2.843595         2.366457
 H         3.124809         1.929576         1.069335
 H        -0.371240        -1.846538         0.754389
 H        -0.270851        -0.796752        -0.772483
 H         1.218266        -1.857554        -0.010976
 H         1.881267        -0.216012         3.995551
