19
Iteration:  3943
 C        -1.038042         0.667542         2.538893
 C         0.202274         1.041673         1.789840
 C         0.913088         2.303282         1.483875
 C         2.169171         1.366121         1.172994
 O         1.862087         0.726291        -0.161378
 C         0.951218        -0.019094         0.620781
 C         0.363759        -1.263580         0.025044
 C         1.483435         0.318042         2.030851
 O         1.899153        -0.495314         3.140667
 H        -0.812447         1.195935         3.459494
 H        -2.027228         0.890686         1.982774
 H        -0.630732        -0.429914         2.723168
 H         0.677439         3.081147         0.789654
 H         1.016464         2.794893         2.487389
 H         3.173153         1.824648         1.213545
 H        -0.341647        -1.721602         0.715509
 H        -0.088315        -1.054726        -1.066527
 H         1.257096        -1.924554        -0.188772
 H         1.609184        -0.078343         3.970391
