19
Iteration:  4569charge 0 multiplicity 1
 C        -1.139232         0.674740         2.457906
 C         0.211029         0.897954         1.783515
 C         0.882568         2.378233         1.468485
 C         2.101887         1.488025         1.093067
 O         1.827941         0.698660        -0.124013
 C         0.917807        -0.003054         0.745421
 C         0.430344        -1.222364         0.123918
 C         1.552975         0.349294         1.992707
 O         2.072095        -0.564703         3.129355
 H        -1.111895         0.993978         3.497427
 H        -1.886187         1.201568         1.952425
 H        -1.258545        -0.396865         2.481848
 H         0.545980         3.102288         0.756060
 H         1.088037         2.714782         2.473678
 H         3.151915         1.804379         1.027028
 H         0.471910        -0.974283        -0.950261
 H         1.042869        -2.142902         0.302171
 H        -0.664653        -1.403275         0.357375
 H         1.293295        -0.555075         3.742687
