19
Iteration:  4867
 C        -1.138947         0.583432         2.334700
 C         0.178824         0.945056         1.745584
 C         0.885891         2.331260         1.502500
 C         2.164931         1.384250         1.121011
 O         1.902092         0.688322        -0.054650
 C         0.947692        -0.027800         0.758691
 C         0.261547        -1.124328         0.085083
 C         1.511007         0.310696         2.090083
 O         2.118319        -0.398913         3.159829
 H        -1.441895         1.368106         3.128730
 H        -2.027802         0.735821         1.613818
 H        -1.192107        -0.401946         2.830824
 H         0.409354         3.133093         0.739287
 H         1.040563         2.715803         2.544202
 H         3.216508         1.854693         1.041538
 H        -0.379225        -0.698672        -0.694045
 H         0.945192        -1.801921        -0.350474
 H        -0.336452        -1.847230         0.739295
 H         2.272762        -1.270998         2.788617
