19
Iteration:  2882
 C        -1.190401         0.780964         2.304032
 C         0.212335         0.933413         1.682152
 C         0.950534         2.305125         1.515422
 C         2.187507         1.505096         1.189003
 O         1.855012         0.703385        -0.023753
 C         0.914110        -0.085152         0.767774
 C         0.298931        -1.302243         0.191237
 C         1.594790         0.278945         2.027414
 O         2.011391        -0.428785         3.102224
 H        -1.236660         0.766872         3.438555
 H        -1.733402         1.650891         1.979427
 H        -1.739094        -0.133233         1.976779
 H         0.742736         3.143071         0.741578
 H         1.168288         2.624636         2.537800
 H         3.128806         1.831456         1.075414
 H        -0.346029        -1.890743         0.848292
 H        -0.423593        -0.957749        -0.686273
 H         1.102572        -1.914999        -0.334246
 H         2.418736        -1.260238         2.759136
