19
Iteration:  3908charge 0 multiplicity 1
 C        -1.051107         0.722958         2.404715
 C         0.294292         0.910404         1.774700
 C         0.876169         2.323249         1.534116
 C         2.226714         1.469455         1.185922
 O         1.771817         0.773562        -0.103142
 C         0.947624        -0.061707         0.641126
 C         0.304933        -1.293999         0.059859
 C         1.655958         0.231503         1.985326
 O         1.953054        -0.477735         3.151466
 H        -1.056493         0.807953         3.528689
 H        -1.970516         1.396970         2.173120
 H        -1.586400        -0.292113         2.218962
 H         0.661267         2.947677         0.659636
 H         0.846666         2.946997         2.504065
 H         3.164931         2.012950         1.116143
 H        -0.452400        -1.717703         0.760844
 H        -0.269624        -1.038608        -0.881575
 H         1.082512        -2.175432        -0.053578
 H         1.491748        -0.003847         3.876257
