19
Iteration:  1454
 C        -1.146386         0.672219         2.301526
 C         0.196452         0.894709         1.713947
 C         0.960113         2.238295         1.471936
 C         2.211435         1.517376         1.254571
 O         1.896592         0.784450        -0.062017
 C         0.934694        -0.038245         0.724636
 C         0.226766        -1.206474         0.145697
 C         1.604655         0.285110         2.012556
 O         1.988581        -0.504969         3.064430
 H        -2.010624         0.774237         1.671710
 H        -1.066277        -0.351812         2.704142
 H        -1.299670         1.317202         3.226407
 H         0.647550         2.955607         0.723294
 H         0.954739         2.641739         2.519373
 H         3.284457         1.795076         1.319766
 H        -0.088798        -1.922332         0.948207
 H        -0.537060        -0.803678        -0.440482
 H         0.874615        -1.829080        -0.493092
 H         1.788071        -0.161050         3.986038
