19
Iteration:  2987charge 0 multiplicity 1
 C        -1.091502         0.676995         2.396955
 C         0.290297         0.914555         1.709153
 C         0.979648         2.264036         1.396480
 C         2.181996         1.422638         1.189961
 O         1.804562         0.793729        -0.102376
 C         0.963129        -0.083296         0.745726
 C         0.258921        -1.208113         0.111347
 C         1.553368         0.296954         2.065743
 O         1.974498        -0.405877         3.199972
 H        -1.312905         1.572026         2.856620
 H        -1.894022         0.593320         1.629447
 H        -1.299289        -0.183250         3.014060
 H         0.545898         2.951840         0.748153
 H         1.045801         2.831368         2.314714
 H         3.357324         1.705260         1.311358
 H        -0.493966        -1.605249         0.772313
 H        -0.226988        -0.789433        -0.683942
 H         0.838582        -2.045709        -0.222335
 H         1.905819        -1.390480         3.027350
