19
Iteration:  4230
 C        -1.306556         0.733311         2.285364
 C         0.166118         0.889903         1.822674
 C         0.897143         2.359324         1.347021
 C         2.168604         1.474637         1.224482
 O         1.903052         0.757481        -0.036110
 C         0.988187        -0.086886         0.843548
 C         0.200642        -1.176697         0.209262
 C         1.610331         0.269261         2.064510
 O         2.231505        -0.599514         2.964769
 H        -1.518400         1.403396         3.040842
 H        -2.129170         0.896326         1.571717
 H        -1.400185        -0.259043         2.734935
 H         0.706788         3.134095         0.552412
 H         0.812091         2.910195         2.352052
 H         3.182669         1.793512         1.394475
 H        -0.605717        -1.649822         0.750529
 H        -0.174629        -0.890920        -0.791120
 H         0.880018        -1.932415        -0.167587
 H         1.972012        -0.250531         3.848372
