19
Iteration:  2225charge 0 multiplicity 1
 C        -1.177469         0.751477         2.262264
 C         0.172442         1.046904         1.780364
 C         0.931237         2.319987         1.564338
 C         2.183881         1.459385         1.172142
 O         1.811345         0.720955         0.006540
 C         0.877665        -0.060837         0.752441
 C         0.283765        -1.237507         0.118650
 C         1.594386         0.186887         2.017904
 O         2.174005        -0.553599         3.016395
 H        -1.653470         1.684720         2.490285
 H        -1.837056         0.112574         1.650295
 H        -1.094067         0.257036         3.256814
 H         0.513401         3.025919         0.788079
 H         1.168111         2.894300         2.480737
 H         3.194137         1.812106         1.040289
 H        -0.637507        -1.632448         0.690851
 H        -0.133152        -0.894874        -0.923479
 H         1.009618        -2.006565        -0.039265
 H         1.878486        -0.288071         3.889825
