19
Iteration:  1476charge 0 multiplicity 1
 C        -1.087423         0.616661         2.202524
 C         0.270662         0.973360         1.841033
 C         0.851323         2.330301         1.486874
 C         2.190573         1.478205         1.154443
 O         1.816103         0.708021        -0.037534
 C         1.003684        -0.089369         0.739364
 C         0.179232        -1.128946         0.035314
 C         1.613756         0.256906         2.078791
 O         2.066055        -0.530344         3.186950
 H        -1.703376         1.291873         1.646207
 H        -1.435813        -0.426032         2.136951
 H        -1.323809         1.013738         3.260941
 H         0.245712         2.792582         0.716653
 H         1.146650         2.978187         2.393586
 H         3.238292         1.871662         1.014845
 H        -0.306219        -1.761040         0.812471
 H        -0.370649        -0.624742        -0.678327
 H         0.845782        -1.930887        -0.422119
 H         1.852207        -0.056768         3.981799
