19
Iteration:  2250charge 0 multiplicity 1
 C        -1.225965         0.753155         2.177471
 C         0.226518         0.919688         1.944237
 C         0.909675         2.197678         1.477793
 C         2.182328         1.483604         1.172679
 O         1.760860         0.740150        -0.092651
 C         0.929848        -0.072292         0.774499
 C         0.212518        -1.120508         0.089773
 C         1.681284         0.269197         2.145578
 O         2.205764        -0.552083         3.074018
 H        -1.571398         1.811972         2.568354
 H        -1.708971         0.413649         1.284771
 H        -1.524414         0.068787         2.977432
 H         0.411624         2.832487         0.667481
 H         1.134229         2.789888         2.413301
 H         3.284547         1.763032         1.024808
 H        -0.664357        -1.445697         0.708413
 H        -0.247956        -0.871956        -1.045788
 H         0.855803        -2.073276         0.027218
 H         2.137270        -0.226633         4.000694
