19
Iteration:  2464charge 0 multiplicity 1
 C        -1.145140         0.736175         2.141887
 C         0.239199         0.918877         1.804182
 C         0.909820         2.225270         1.487294
 C         2.090690         1.448446         1.182176
 O         1.820224         0.794997        -0.069661
 C         0.888438        -0.053356         0.779799
 C         0.155626        -1.105852         0.159867
 C         1.666280         0.222042         2.126214
 O         2.233846        -0.566015         3.101414
 H        -1.568521         1.673685         2.447631
 H        -1.758031         0.452666         1.189540
 H        -1.262187         0.070202         3.055425
 H         0.550895         2.827886         0.673879
 H         1.198948         2.721568         2.416277
 H         3.166628         1.823886         1.083442
 H        -0.723721        -1.284859         0.947399
 H        -0.149251        -1.033186        -0.894182
 H         0.630330        -2.110853         0.104608
 H         1.959428        -0.264416         4.001763
