19
Iteration:  4065
 C        -1.298222         0.793752         2.121861
 C         0.185526         0.995796         1.850217
 C         0.921399         2.327014         1.555412
 C         2.215728         1.484383         1.103121
 O         1.790328         0.793264        -0.066555
 C         0.863965        -0.008589         0.773080
 C         0.278472        -1.373073         0.213264
 C         1.658794         0.264319         2.139606
 O         2.178124        -0.654269         3.035945
 H        -1.301940         1.203958         3.114401
 H        -1.765268         1.469491         1.399326
 H        -1.407435        -0.338670         2.171393
 H         0.462651         3.004895         0.850612
 H         1.070762         2.851950         2.481314
 H         3.231327         1.977409         1.042689
 H        -0.077497        -1.917737         1.139605
 H        -0.520248        -0.955000        -0.523248
 H         1.005232        -1.806070        -0.435633
 H         2.458689        -0.281537         3.879844
