19
Iteration:  3990charge 0 multiplicity 1
 C        -1.072885         0.746083         2.393895
 C         0.196031         0.933814         1.683596
 C         0.837751         2.317164         1.470640
 C         2.204043         1.500085         1.129927
 O         1.812846         0.730084        -0.080313
 C         0.980845        -0.032597         0.741541
 C         0.326016        -1.167528         0.147112
 C         1.535922         0.281492         2.125458
 O         2.034143        -0.674482         3.060171
 H        -1.319085         1.679856         2.975326
 H        -1.752659         0.551764         1.566507
 H        -0.893535        -0.166401         3.026671
 H         0.383083         2.830734         0.618117
 H         0.901559         2.975187         2.286244
 H         3.207756         1.926361         1.347452
 H        -0.357278        -1.625418         0.902846
 H        -0.237498        -0.690119        -0.668960
 H         1.031024        -1.831473        -0.297564
 H         1.951490        -0.249030         3.964800
