19
Iteration:  2939
 C        -1.027976         0.772782         2.483477
 C         0.200100         1.017557         1.685027
 C         0.915195         2.316226         1.484700
 C         2.175770         1.418962         1.129156
 O         1.879360         0.698464        -0.090530
 C         0.907710        -0.041180         0.755922
 C         0.431048        -1.323401         0.147905
 C         1.517291         0.385519         2.070021
 O         1.782562        -0.529183         3.069781
 H        -0.780017         1.190865         3.514439
 H        -1.959142         1.266424         2.150815
 H        -1.297596        -0.272151         2.479268
 H         0.769031         3.177092         0.669328
 H         1.028200         2.994424         2.402634
 H         3.169818         1.690199         0.968273
 H        -0.046438        -2.019261         0.923870
 H        -0.278213        -1.150718        -0.789197
 H         1.325974        -1.919989        -0.162878
 H         2.593262        -0.978002         2.811426
