19
Iteration:   252
 C        -1.074001         0.815360         2.464316
 C         0.150670         1.032702         1.672844
 C         0.931401         2.263875         1.411331
 C         2.167323         1.508700         1.082750
 O         1.906761         0.717011        -0.091371
 C         0.919008        -0.050951         0.781195
 C         0.473521        -1.348247         0.196621
 C         1.552127         0.283569         2.010065
 O         1.820056        -0.569020         3.086011
 H        -0.827447         0.886259         3.523134
 H        -1.972018         1.473739         2.211102
 H        -1.479351        -0.228659         2.425441
 H         0.488620         2.933382         0.672026
 H         1.135196         2.840294         2.332748
 H         3.195289         2.057157         1.022127
 H         0.220955        -2.108824         1.050685
 H        -0.444709        -1.207379        -0.405898
 H         1.259496        -1.781318        -0.364646
 H         1.907881        -0.053853         3.890521
