19
Iteration:  1219charge 0 multiplicity 1
 C        -1.037212         0.785266         2.413140
 C         0.267337         1.026256         1.778523
 C         0.959462         2.330730         1.631123
 C         2.220929         1.463199         1.203728
 O         1.781228         0.813443        -0.117274
 C         0.907388         0.054520         0.626641
 C         0.416213        -1.272310         0.093262
 C         1.527673         0.162900         1.984521
 O         1.833097        -0.686078         3.054205
 H        -0.831909         0.911125         3.526891
 H        -1.828080         1.504501         2.166302
 H        -1.266566        -0.266600         2.333745
 H         0.492038         2.914141         0.794956
 H         1.182829         2.719631         2.584492
 H         3.164634         2.026441         1.110616
 H         0.447329        -2.017618         0.830100
 H        -0.417299        -1.305537        -0.674793
 H         1.269224        -1.472237        -0.605913
 H         1.368344        -0.418464         3.874451
