19
Iteration:  3804charge 0 multiplicity 1
 C        -1.187513         0.840167         2.155179
 C         0.207926         0.961883         1.779669
 C         0.957029         2.333126         1.594040
 C         2.170205         1.551915         1.098148
 O         1.758308         0.845297        -0.023848
 C         0.968827        -0.074159         0.790965
 C         0.375721        -1.421143         0.239273
 C         1.575423         0.294662         2.031533
 O         2.095197        -0.676185         3.003615
 H        -1.432619         1.008973         3.279300
 H        -1.859134         1.519163         1.706859
 H        -1.688792        -0.131841         2.044325
 H         0.319473         3.030162         0.801969
 H         1.151149         2.883802         2.547125
 H         3.202429         1.977058         0.994931
 H         0.036115        -1.965068         1.142820
 H        -0.607666        -1.222957        -0.281419
 H         0.971571        -2.020356        -0.421395
 H         2.005174        -0.382253         3.948422
