19
Iteration:  1255
 C        -1.104776         0.687324         2.436550
 C         0.206794         0.941159         1.738755
 C         0.917427         2.317098         1.565258
 C         2.292534         1.435257         1.321996
 O         1.920257         0.761369        -0.035827
 C         0.933765        -0.014954         0.648195
 C         0.218690        -1.226579        -0.027684
 C         1.501812         0.259309         2.009889
 O         2.005211        -0.513302         3.007146
 H        -0.872589         0.430524         3.479260
 H        -1.720753         1.567515         2.532389
 H        -1.736564        -0.069116         2.025242
 H         0.506135         3.037372         0.902229
 H         1.013371         2.917639         2.457644
 H         3.388000         1.742692         1.184581
 H        -0.161639        -2.006026         0.718574
 H        -0.675107        -1.036521        -0.721155
 H         0.980558        -1.716462        -0.535212
 H         1.441978        -0.377542         3.804002
