19
Iteration:  1408
 C        -1.144272         0.768881         2.447879
 C         0.184068         1.016369         1.756262
 C         0.924663         2.352333         1.520997
 C         2.283732         1.459467         1.169542
 O         1.782832         0.776446        -0.040523
 C         0.958629        -0.008933         0.734397
 C         0.496412        -1.314048         0.149670
 C         1.553330         0.303546         2.041866
 O         1.824858        -0.665999         2.916172
 H        -1.720017         0.169393         1.726611
 H        -1.089815         0.339705         3.455917
 H        -1.654039         1.740116         2.472390
 H         0.688663         2.948828         0.606620
 H         1.179060         2.874309         2.415135
 H         3.229078         2.134997         1.188099
 H         0.360782        -2.114876         0.954866
 H        -0.323133        -1.239290        -0.566201
 H         1.254421        -1.768246        -0.334741
 H         1.823177        -0.543375         3.926337
