19
Iteration:  2734
 C        -1.008931         0.751771         2.488178
 C         0.269898         1.013210         1.796073
 C         0.960503         2.258566         1.548395
 C         2.186212         1.503921         1.112043
 O         1.883718         0.755435        -0.097599
 C         0.866321         0.019209         0.705469
 C         0.332865        -1.320063         0.082368
 C         1.612266         0.249806         1.938079
 O         1.816604        -0.504455         3.113422
 H        -1.798037         1.411421         2.065074
 H        -1.275440        -0.348341         2.356330
 H        -1.045786         0.910987         3.577897
 H         0.516871         2.840943         0.759662
 H         1.182828         2.947493         2.382543
 H         3.274285         2.081207         1.204921
 H        -0.342141        -1.943561         0.778184
 H        -0.321734        -1.200992        -0.783521
 H         1.228780        -1.893140        -0.201772
 H         1.304133        -1.289336         3.268184
