19
Iteration:  3207
 C        -1.134227         0.758396         2.245388
 C         0.264827         0.906371         1.799687
 C         0.950131         2.283292         1.485126
 C         2.219768         1.393474         1.153070
 O         1.723674         0.704594        -0.013863
 C         0.938811        -0.088301         0.790308
 C         0.258543        -1.178559         0.093329
 C         1.565613         0.265135         2.087277
 O         2.033672        -0.416282         3.149608
 H        -1.462212         1.476026         2.909714
 H        -1.692255         0.864648         1.319266
 H        -1.300932        -0.228581         2.663798
 H         0.540029         2.944930         0.684943
 H         1.211859         2.676010         2.463334
 H         3.271428         1.790602         1.076074
 H        -0.710803        -1.374931         0.535079
 H         0.061405        -0.661988        -0.821020
 H         0.825167        -2.126543        -0.139019
 H         2.929877        -0.808185         3.007438
