19
Iteration:  4616
 C        -1.125835         0.596546         2.378005
 C         0.192818         0.928372         1.688175
 C         0.892767         2.303044         1.490901
 C         2.158076         1.457135         1.271888
 O         1.873597         0.729168        -0.094267
 C         0.950636        -0.064171         0.761786
 C         0.111659        -1.245028        -0.006848
 C         1.553632         0.273685         2.034531
 O         2.230067        -0.319943         3.192943
 H        -1.259776         1.286164         3.179624
 H        -1.916338         0.845810         1.644842
 H        -1.198276        -0.366862         2.724981
 H         0.506734         2.909460         0.683622
 H         0.977427         2.772150         2.385324
 H         3.101744         2.019061         1.368997
 H         0.363196        -1.148647        -1.077985
 H         0.391890        -2.188702         0.322875
 H        -1.003669        -1.131384         0.186609
 H         2.142292        -1.289240         3.295066
