19
Iteration:  2806
 C        -1.156648         0.790253         2.352436
 C         0.285502         0.883829         1.762849
 C         0.890554         2.208769         1.490996
 C         2.153629         1.479137         1.086477
 O         1.920897         0.750317        -0.174700
 C         0.973043        -0.127983         0.821929
 C         0.246150        -1.140093         0.091725
 C         1.590621         0.241093         2.032356
 O         1.938324        -0.495344         3.246940
 H        -1.369528         1.672498         3.029165
 H        -1.911449         0.623183         1.642196
 H        -1.231928        -0.057052         3.048343
 H         0.469070         2.959973         0.744369
 H         1.196072         2.783739         2.365540
 H         2.946966         2.054852         1.151335
 H        -0.403500        -1.621171         0.794392
 H        -0.471049        -0.655635        -0.644798
 H         0.927032        -1.873179        -0.393741
 H         2.865405        -0.748789         3.154543
