19
Iteration:   921charge 0 multiplicity 1
 C        -1.180252         0.755518         2.236173
 C         0.252451         0.949886         1.875274
 C         0.927184         2.240331         1.587776
 C         2.106221         1.520249         1.174231
 O         1.788068         0.768859        -0.068531
 C         0.986448        -0.041644         0.789866
 C         0.186337        -1.196316         0.118626
 C         1.717518         0.224977         2.087492
 O         2.182989        -0.606404         3.017321
 H        -1.570766        -0.136752         1.736995
 H        -1.503610         0.913117         3.289741
 H        -1.800265         1.414107         1.543540
 H         0.453493         2.909859         0.767553
 H         1.006465         2.900701         2.446791
 H         3.057745         1.887135         1.135573
 H        -0.762806        -1.463653         0.673427
 H        -0.168462        -0.682625        -0.803855
 H         0.676391        -2.076886        -0.530219
 H         1.698110        -0.464068         3.842686
