19
Iteration:  3738charge 0 multiplicity 1
 C        -0.976311         0.667093         2.440231
 C         0.171391         0.998077         1.653224
 C         0.835482         2.359346         1.510324
 C         2.157329         1.468366         1.224778
 O         1.896129         0.709459        -0.047303
 C         0.946861        -0.059553         0.732294
 C         0.305684        -1.242023         0.093608
 C         1.550168         0.262332         1.999284
 O         1.942593        -0.551916         3.050074
 H        -1.241357         1.670123         3.004345
 H        -1.928022         0.526551         1.976784
 H        -0.731656        -0.063078         3.258608
 H         0.557284         3.041615         0.581932
 H         0.924393         2.912506         2.434490
 H         3.203751         1.818687         1.411667
 H        -0.454084        -1.793205         0.628306
 H        -0.060398        -0.891564        -0.958252
 H         0.953465        -1.993239        -0.331520
 H         2.026690         0.042926         3.809261
