19
Iteration:   485
 C        -1.245122         0.848230         2.336354
 C         0.151448         0.961648         1.700669
 C         0.902134         2.299758         1.522960
 C         2.131700         1.437204         1.192463
 O         1.903892         0.743076        -0.082777
 C         0.942368         0.015286         0.709216
 C         0.373490        -1.339047         0.284828
 C         1.551044         0.286090         1.997430
 O         2.098498        -0.591443         2.979505
 H        -1.175173         1.490574         3.179915
 H        -2.119759         1.124945         1.798395
 H        -1.352162        -0.194873         2.653238
 H         0.530448         2.920806         0.693867
 H         1.148114         2.915036         2.412428
 H         3.141721         1.867075         1.272947
 H         0.130626        -1.956506         1.134200
 H        -0.424749        -1.296829        -0.365022
 H         1.205242        -1.917717        -0.149807
 H         1.754920        -0.249083         3.794149
