19
Iteration:  3639charge 0 multiplicity 1
 C        -1.206619         0.787628         2.224531
 C         0.198120         0.963000         1.727114
 C         0.908854         2.251369         1.570973
 C         2.157585         1.438238         1.316157
 O         1.834203         0.738098        -0.076205
 C         1.001906        -0.080543         0.692187
 C         0.284343        -1.266328         0.191779
 C         1.551611         0.242777         2.000331
 O         2.181201        -0.425680         3.038654
 H        -1.369298         1.118449         3.358618
 H        -1.940650         1.334369         1.654339
 H        -1.584526        -0.301361         2.192187
 H         0.601144         2.887426         0.770288
 H         1.077687         2.795327         2.441799
 H         3.109526         1.960722         1.241696
 H        -0.309510        -1.604558         1.029739
 H        -0.500902        -1.142799        -0.705902
 H         0.853225        -2.154635        -0.135058
 H         1.638562        -0.679918         3.781809
