19
Iteration:  2559
 C        -0.963007         0.768357         2.507610
 C         0.223669         1.028934         1.748853
 C         0.937454         2.361230         1.497979
 C         2.208202         1.482474         1.137770
 O         1.855327         0.763100        -0.098821
 C         0.929250         0.012906         0.660027
 C         0.395034        -1.289197         0.116744
 C         1.525569         0.269479         2.046795
 O         1.789422        -0.702913         3.037906
 H        -1.948540         1.035629         2.105953
 H        -1.029204        -0.299177         2.747958
 H        -0.771210         1.319671         3.419039
 H         0.609390         2.895328         0.571332
 H         0.920230         3.005840         2.413101
 H         3.123069         2.020820         1.163561
 H         0.184456        -1.918250         0.978773
 H        -0.392155        -1.294057        -0.647560
 H         1.158965        -1.764374        -0.488880
 H         1.309569        -0.336124         3.824059
