19
Iteration:  2025charge 0 multiplicity 1
 C        -1.176491         0.704371         2.319566
 C         0.170381         0.945134         1.698638
 C         0.919693         2.323794         1.538624
 C         2.169129         1.523677         1.246098
 O         1.918076         0.734852        -0.041709
 C         0.911150         0.067580         0.729555
 C         0.242589        -1.164044         0.200003
 C         1.583443         0.190014         2.026870
 O         2.085791        -0.654148         2.960772
 H        -1.966761         0.527264         1.693762
 H        -1.167262        -0.220932         2.947410
 H        -1.400265         1.557023         2.966097
 H         0.563617         3.023276         0.788422
 H         0.999547         2.733108         2.569246
 H         3.201215         1.981566         0.994727
 H        -0.534417        -1.731852         0.812232
 H        -0.156772        -0.874892        -0.712475
 H         1.021612        -1.990704         0.009875
 H         2.102363        -0.144019         3.816573
