19
Iteration:  4101charge 0 multiplicity 1
 C        -1.171229         0.828277         2.375051
 C         0.223385         0.945444         1.723555
 C         0.858632         2.338713         1.446141
 C         2.198974         1.484801         1.241948
 O         1.887982         0.745200        -0.091873
 C         0.901775        -0.045026         0.702058
 C         0.319100        -1.281601         0.150024
 C         1.561052         0.234905         2.068178
 O         2.086379        -0.587802         3.035259
 H        -0.983337         0.932681         3.503676
 H        -2.043794         1.451233         2.067086
 H        -1.610487        -0.184552         2.339836
 H         0.580373         2.895725         0.548974
 H         0.840903         2.964694         2.286254
 H         3.142954         2.040977         1.294561
 H        -0.039442        -1.957303         0.948199
 H        -0.556812        -1.200435        -0.484785
 H         1.094758        -1.951679        -0.318688
 H         1.850603        -0.335856         3.939040
