19
Iteration:   562
 C        -1.207440         0.712040         2.198647
 C         0.132187         0.978064         1.616346
 C         0.887959         2.311352         1.507679
 C         2.150761         1.441799         1.209494
 O         1.930586         0.692241        -0.025752
 C         0.840261        -0.045193         0.832713
 C         0.197344        -1.275329         0.212737
 C         1.682772         0.269061         2.051059
 O         2.228175        -0.472690         3.038483
 H        -1.069916         0.570662         3.251303
 H        -1.717326         1.649680         2.174492
 H        -1.796446        -0.091667         1.761019
 H         0.645583         3.100984         0.737080
 H         0.899888         2.728446         2.522534
 H         3.111284         1.833392         1.270103
 H        -0.550707        -1.582584         0.961981
 H        -0.373820        -0.857860        -0.549091
 H         0.685981        -2.280715        -0.112571
 H         1.990853        -0.046365         3.939386
