19
Iteration:  1429
 C        -1.103290         0.733758         2.399653
 C         0.194191         0.983041         1.749016
 C         0.925950         2.395027         1.550989
 C         2.153386         1.427863         1.199005
 O         1.963717         0.780237        -0.068656
 C         0.860083         0.003827         0.647932
 C         0.400579        -1.301493         0.170307
 C         1.478644         0.244980         1.978648
 O         1.931290        -0.593494         3.005283
 H        -1.924124         0.325454         1.744863
 H        -0.828522        -0.012617         3.156433
 H        -1.588855         1.583068         2.863644
 H         0.806154         3.127237         0.652496
 H         0.871755         2.908748         2.489850
 H         3.272515         1.689259         1.284761
 H         0.297736        -1.975453         1.078977
 H        -0.541361        -1.135049        -0.424629
 H         1.093377        -1.764470        -0.420293
 H         1.863910        -0.335947         3.941272
