19
Iteration:    32
 C        -1.092907         0.834903         2.409495
 C         0.270670         0.929312         1.775786
 C         0.898641         2.421037         1.412173
 C         2.177577         1.564073         0.967114
 O         1.755583         0.783854        -0.066453
 C         0.985001        -0.042011         0.755839
 C         0.604197        -1.374412         0.240127
 C         1.594122         0.198004         2.041542
 O         1.750801        -0.684817         3.130704
 H        -1.101024         1.424018         3.259249
 H        -1.712856         1.470890         1.760808
 H        -1.558548        -0.056565         2.479132
 H         0.391310         2.871550         0.617246
 H         0.978485         2.854197         2.347023
 H         3.210916         1.805612         0.841247
 H         0.232772        -1.923200         0.974127
 H        -0.275491        -1.163638        -0.457992
 H         1.387880        -1.903705        -0.299408
 H         1.649065        -0.099892         3.933953
