19
Iteration:  1863
 C        -1.200768         0.649520         2.122789
 C         0.241322         0.976525         1.906956
 C         0.876875         2.290538         1.488362
 C         2.162178         1.465416         1.250267
 O         1.785115         0.674474        -0.121942
 C         0.973727        -0.015802         0.770010
 C         0.264625        -1.118816         0.146796
 C         1.625119         0.228288         2.037215
 O         2.178040        -0.532986         3.114504
 H        -1.691275         1.324218         2.881076
 H        -1.764013         1.113183         1.282788
 H        -1.239556        -0.372539         2.516008
 H         0.389459         2.889332         0.673675
 H         0.991306         2.946653         2.418084
 H         3.279710         1.722582         1.310082
 H        -0.488953        -1.596429         0.886277
 H        -0.529501        -0.764752        -0.611952
 H         0.873964        -1.929893        -0.177965
 H         2.020080        -0.068716         3.981528
