19
Iteration:  2932charge 0 multiplicity 1
 C        -1.105135         0.796456         2.496769
 C         0.187663         1.033466         1.679926
 C         0.954218         2.298997         1.437027
 C         2.243027         1.467944         1.124015
 O         1.835184         0.735786        -0.100741
 C         0.920396        -0.055650         0.745417
 C         0.442202        -1.342313         0.160453
 C         1.577906         0.340275         2.098015
 O         1.769746        -0.548463         3.065587
 H        -0.892310         1.017315         3.514679
 H        -1.971954         1.451684         2.236607
 H        -1.373182        -0.260869         2.525169
 H         0.562828         2.813327         0.612960
 H         0.962425         2.742606         2.432440
 H         3.364956         1.964461         1.038684
 H        -0.154758        -1.950476         0.835566
 H        -0.221513        -1.182759        -0.602106
 H         1.265878        -1.890225        -0.240437
 H         2.681978        -0.925730         3.016889
