19
Iteration:  4036charge 0 multiplicity 1
 C        -1.213220         0.725828         2.098369
 C         0.183939         0.984119         1.775634
 C         0.960336         2.303816         1.574337
 C         2.167927         1.383738         1.245573
 O         1.774741         0.782660        -0.046468
 C         0.901725        -0.020204         0.742877
 C         0.262997        -1.234568         0.308007
 C         1.581734         0.233281         2.085701
 O         2.200640        -0.555057         2.919888
 H        -1.403008         1.519082         2.918170
 H        -1.899879         0.905129         1.228781
 H        -1.381275        -0.258196         2.570508
 H         0.642045         3.091821         0.834337
 H         1.053708         2.811800         2.533877
 H         3.249438         1.612698         1.281625
 H        -0.176387        -1.728550         1.187318
 H        -0.503732        -0.904189        -0.370460
 H         1.029925        -1.846232        -0.233214
 H         2.199838        -0.119115         3.811667
