19
Iteration:  2410
 C        -1.102592         0.725172         2.372937
 C         0.148655         1.025523         1.717983
 C         0.962527         2.338075         1.436550
 C         2.221123         1.406640         1.190908
 O         1.864483         0.725459        -0.083012
 C         0.836863         0.044229         0.724445
 C         0.321059        -1.252846         0.159982
 C         1.475237         0.242233         2.105249
 O         2.067672        -0.572795         3.050894
 H        -0.999271         0.901191         3.396474
 H        -1.951421         1.272437         1.900068
 H        -1.359554        -0.345811         2.217295
 H         0.604478         2.970821         0.640708
 H         0.919008         2.963265         2.328378
 H         3.337225         1.556917         1.143201
 H        -0.248774        -1.849841         0.919255
 H        -0.397514        -1.186505        -0.596088
 H         1.221103        -1.743428        -0.138214
 H         2.163761        -0.088615         3.911174
