19
Iteration:  1960
 C        -1.004142         0.830268         2.492582
 C         0.242727         0.971320         1.722141
 C         0.879815         2.327773         1.483350
 C         2.177456         1.456843         1.090304
 O         1.780768         0.791780        -0.085835
 C         0.874466        -0.020172         0.652613
 C         0.527905        -1.287197         0.106992
 C         1.489438         0.293320         2.075525
 O         1.881048        -0.699306         3.092372
 H        -1.682749         1.686977         2.416114
 H        -1.603915        -0.125723         2.157139
 H        -0.662687         0.686944         3.564256
 H         0.584727         3.090095         0.794278
 H         1.029346         2.713717         2.524566
 H         3.229991         1.977672         1.136229
 H         0.035040        -2.144310         0.668141
 H        -0.144975        -1.040480        -0.680488
 H         1.530325        -1.544607        -0.349130
 H         1.394880        -0.408367         3.885030
