19
Iteration:  1075
 C        -1.107997         0.729893         2.447810
 C         0.185067         0.938772         1.752229
 C         1.074261         2.281995         1.657035
 C         2.183499         1.460805         1.165160
 O         1.816276         0.820958        -0.073455
 C         0.913303        -0.003718         0.677410
 C         0.283791        -1.171276         0.026885
 C         1.472615         0.160052         2.021893
 O         2.049146        -0.596113         3.029128
 H        -1.524406         1.540503         3.062071
 H        -1.852150         0.632973         1.629537
 H        -1.114676        -0.276345         2.946997
 H         0.591341         2.955680         0.779040
 H         1.244471         2.807588         2.628053
 H         3.180641         1.827917         1.274194
 H        -0.465220        -1.722763         0.623494
 H        -0.180810        -0.620930        -0.898767
 H         1.047849        -1.987784        -0.478096
 H         1.733183        -0.273263         3.868492
