19
Iteration:  4606charge 0 multiplicity 1
 C        -1.098665         0.595763         2.445779
 C         0.210580         0.902704         1.710159
 C         0.896447         2.354914         1.430015
 C         2.150688         1.479734         1.267721
 O         1.879909         0.766870        -0.016995
 C         0.861322        -0.075136         0.660331
 C         0.158821        -1.300515         0.012361
 C         1.602711         0.251912         2.070521
 O         2.206824        -0.316121         3.133307
 H        -1.297963         1.244094         3.297105
 H        -1.913926         0.865186         1.645785
 H        -1.386251        -0.398818         2.645837
 H         0.750148         3.055149         0.575910
 H         0.858402         2.957653         2.306334
 H         3.199366         1.640068         1.586638
 H         0.325203        -1.194612        -1.072225
 H         0.421679        -2.281711         0.289190
 H        -0.941272        -1.143558         0.171890
 H         1.784809        -1.215644         3.244377
