19
Iteration:    44charge 0 multiplicity 1
 C        -1.057641         0.884278         2.421767
 C         0.244165         1.021099         1.685313
 C         0.913543         2.377232         1.434215
 C         2.156187         1.578555         1.086723
 O         1.723324         0.709765        -0.056475
 C         1.025764        -0.136749         0.779409
 C         0.594071        -1.413131         0.234261
 C         1.579646         0.309768         2.058974
 O         1.740663        -0.665520         3.011558
 H        -0.981662         1.189657         3.426613
 H        -1.846098         1.430443         1.921148
 H        -1.368681        -0.121581         2.532994
 H         0.599467         3.106351         0.743869
 H         1.070954         2.982111         2.301880
 H         3.128385         2.059385         0.913105
 H         0.418138        -2.078779         1.027663
 H        -0.234368        -1.403946        -0.469949
 H         1.481230        -1.801816        -0.260864
 H         1.388476        -0.287013         3.877025
