19
Iteration:  3062
 C        -1.155997         0.770843         2.247928
 C         0.246654         0.922996         1.713077
 C         0.906627         2.274793         1.459869
 C         2.204468         1.372131         1.255935
 O         1.920992         0.719373        -0.019144
 C         0.874476        -0.048007         0.708336
 C         0.125632        -1.246900         0.104835
 C         1.536468         0.264151         2.046035
 O         2.113224        -0.447154         3.169933
 H        -1.263600         1.404478         3.134710
 H        -2.023010         0.956898         1.501568
 H        -1.348489        -0.238933         2.633004
 H         0.745625         3.116760         0.635343
 H         0.972185         2.871613         2.475185
 H         3.226727         1.912315         1.457223
 H        -0.339538        -1.842315         0.952048
 H        -0.685510        -0.936178        -0.652464
 H         0.863199        -1.951811        -0.392756
 H         3.005486        -0.130287         3.125058
