19
Iteration:  3693
 C        -1.089192         0.566632         2.443100
 C         0.299523         1.025862         1.876293
 C         0.879237         2.398453         1.429880
 C         2.197579         1.365880         1.170570
 O         1.820884         0.747621        -0.099578
 C         1.019276        -0.163000         0.704845
 C         0.239726        -1.107556        -0.021618
 C         1.573890         0.216924         2.023884
 O         1.955839        -0.470528         3.190254
 H        -1.549973         1.477480         2.999664
 H        -1.799921         0.319192         1.669303
 H        -0.758770        -0.248946         3.181007
 H         0.407630         2.735878         0.399774
 H         1.030626         3.188327         2.148450
 H         3.220242         1.721408         1.194789
 H        -0.615291        -1.385959         0.541330
 H         0.174086        -0.699893        -1.135308
 H         0.797493        -2.054842        -0.195676
 H         1.785741         0.113703         3.936172
