19
Iteration:  1044
 C        -0.974213         0.659572         2.533058
 C         0.206195         0.954361         1.727613
 C         0.951204         2.370745         1.580009
 C         2.215679         1.433347         1.224469
 O         1.940503         0.809963        -0.045040
 C         0.874550         0.043867         0.668084
 C         0.293870        -1.226464         0.078012
 C         1.498379         0.259626         1.959579
 O         1.876373        -0.639278         2.942685
 H        -0.893498         1.017713         3.572172
 H        -1.770341         1.116612         1.981610
 H        -1.236618        -0.397358         2.584974
 H         0.537182         2.984576         0.758705
 H         0.876836         3.086721         2.374480
 H         3.271023         1.748822         1.401844
 H        -0.077668        -1.922380         0.754553
 H        -0.537727        -0.916673        -0.645126
 H         1.121845        -1.778209        -0.477281
 H         1.411365        -0.370627         3.783238
