19
Iteration:   726
 C        -1.190433         0.697118         2.145691
 C         0.259837         0.971505         1.949275
 C         0.846582         2.294450         1.525741
 C         2.200758         1.403699         1.125150
 O         1.846118         0.749559        -0.130968
 C         0.885759         0.000202         0.843045
 C         0.225645        -1.196032         0.207117
 C         1.621873         0.249310         2.147421
 O         2.161833        -0.568408         3.037492
 H        -1.733361         1.388299         2.797161
 H        -1.506519         1.140270         1.197596
 H        -1.557373        -0.306735         2.340213
 H         0.343165         2.665684         0.588007
 H         0.946870         3.040163         2.274721
 H         3.125697         1.866383         0.940595
 H        -0.513994        -1.580390         0.805114
 H        -0.274182        -0.808969        -0.665690
 H         0.966970        -2.008406        -0.203235
 H         2.441776        -0.101887         3.816851
