19
Iteration:  3345
 C        -1.096734         0.821924         2.371171
 C         0.199626         1.025887         1.701983
 C         0.880716         2.323905         1.559205
 C         2.224283         1.436752         1.178423
 O         1.900956         0.764571        -0.086591
 C         0.845351        -0.041654         0.662397
 C         0.429574        -1.343425         0.197417
 C         1.485101         0.256060         1.974384
 O         1.898451        -0.561661         3.093967
 H        -1.079576         1.029466         3.485330
 H        -1.940028         1.487342         2.083262
 H        -1.303343        -0.180451         2.230348
 H         0.581029         2.979770         0.769098
 H         0.867829         2.755886         2.567718
 H         3.282973         1.755306         1.317773
 H         0.258826        -1.891484         1.058482
 H        -0.477072        -1.442461        -0.424934
 H         1.118208        -1.941321        -0.334485
 H         2.835651        -0.308439         3.094343
