19
Iteration:  1191charge 0 multiplicity 1
 C        -1.178205         0.745250         2.386416
 C         0.272073         0.943094         1.808405
 C         1.016841         2.291893         1.530579
 C         2.248647         1.515305         1.173188
 O         1.754188         0.880016        -0.047264
 C         0.976433        -0.000017         0.765493
 C         0.384817        -1.245353         0.118807
 C         1.616142         0.262337         2.037643
 O         1.802749        -0.740554         2.931378
 H        -1.159839         1.403831         3.245254
 H        -2.003284         1.111287         1.750349
 H        -1.277548        -0.274468         2.777356
 H         0.581107         2.883754         0.740618
 H         1.329147         2.843239         2.502226
 H         3.250386         2.055184         1.128325
 H         0.144797        -2.112363         0.856409
 H        -0.339029        -0.939755        -0.606481
 H         1.142483        -1.650351        -0.515512
 H         1.930056        -0.463525         3.833095
