19
Iteration:  4487charge 0 multiplicity 1
 C        -1.167854         0.731823         2.294947
 C         0.137862         0.989490         1.805243
 C         0.821194         2.376980         1.497539
 C         2.142918         1.490551         1.219540
 O         1.899656         0.706596         0.004355
 C         0.934590        -0.066182         0.764210
 C         0.364259        -1.319812         0.213244
 C         1.508768         0.357521         2.088590
 O         2.115967        -0.589678         2.851621
 H        -1.271898         1.272478         3.248408
 H        -1.897923         1.090895         1.527639
 H        -1.380672        -0.326449         2.388393
 H         0.508129         3.001878         0.582630
 H         1.104168         3.111255         2.304200
 H         3.202131         1.630503         1.396454
 H        -0.682701        -1.173959        -0.087108
 H         0.937890        -1.620518        -0.632181
 H         0.472171        -2.107100         0.969445
 H         2.416293        -0.234664         3.712316
