19
Iteration:   622charge 0 multiplicity 1
 C        -1.008369         0.741598         2.483834
 C         0.259455         0.975260         1.736727
 C         0.994878         2.318416         1.361965
 C         2.220607         1.594232         1.017382
 O         1.726472         0.676544        -0.044416
 C         0.894551        -0.036160         0.825047
 C         0.503321        -1.297593         0.068760
 C         1.566418         0.285616         2.108212
 O         1.779434        -0.595624         3.128115
 H        -0.712530         0.393942         3.513223
 H        -1.754601         1.581312         2.619650
 H        -1.714264         0.059520         1.966743
 H         0.677361         2.849402         0.471538
 H         0.841932         3.015925         2.206378
 H         3.263556         2.001672         0.681973
 H        -0.030410        -2.033386         0.754294
 H        -0.255996        -1.016664        -0.731976
 H         1.349557        -1.749421        -0.315600
 H         1.622230        -0.136777         3.982221
