19
Iteration:  2336
 C        -1.012379         0.788949         2.444966
 C         0.272910         0.965363         1.739800
 C         0.942399         2.286240         1.434764
 C         2.210946         1.516167         1.099077
 O         1.782523         0.803183        -0.075185
 C         0.922038        -0.025008         0.745279
 C         0.413953        -1.349378         0.096161
 C         1.545444         0.278277         2.081373
 O         1.845380        -0.624063         3.098506
 H        -0.869177         0.774932         3.603317
 H        -1.700768         1.582125         2.225576
 H        -1.522162        -0.090658         2.047439
 H         0.598106         2.943909         0.561375
 H         0.881796         3.006107         2.290581
 H         3.303971         1.971307         0.812677
 H         0.197546        -2.013270         0.926343
 H        -0.649619        -1.279618        -0.274750
 H         1.232048        -1.676246        -0.544730
 H         1.493855        -0.372855         3.988440
