19
Iteration:  3592charge 0 multiplicity 1
 C        -1.256505         0.855290         2.216848
 C         0.159590         0.958907         1.741652
 C         0.954705         2.290095         1.501070
 C         2.127629         1.533344         1.135710
 O         1.768273         0.725959        -0.065725
 C         0.967209        -0.021745         0.807906
 C         0.503729        -1.242696         0.289680
 C         1.485585         0.242081         2.070727
 O         2.134793        -0.660553         3.014818
 H        -1.219815         0.828588         3.325129
 H        -1.890273         1.791933         1.912338
 H        -1.926125        -0.063039         1.848965
 H         0.632598         3.018260         0.642208
 H         1.058970         2.857981         2.471959
 H         3.187936         1.706733         1.024614
 H         0.431713        -2.131488         1.019113
 H        -0.519498        -1.201787        -0.272251
 H         1.171381        -1.608805        -0.546181
 H         1.881707        -0.390641         3.932808
