19
Iteration:  1259charge 0 multiplicity 1
 C        -1.090872         0.693874         2.422083
 C         0.233802         0.953516         1.725435
 C         0.910577         2.289484         1.580609
 C         2.241734         1.470880         1.289679
 O         1.933553         0.759838        -0.035720
 C         0.899501        -0.029827         0.680010
 C         0.210777        -1.201886        -0.029662
 C         1.498819         0.250662         1.988869
 O         2.026075        -0.531883         3.037398
 H        -0.937701         0.386868         3.460673
 H        -1.700972         1.622189         2.572398
 H        -1.677678        -0.149230         1.924664
 H         0.539740         2.969084         0.763903
 H         1.110230         2.979739         2.475606
 H         3.286630         1.722480         1.322892
 H        -0.149606        -1.945801         0.748786
 H        -0.561103        -0.879214        -0.685952
 H         0.971763        -1.880082        -0.617669
 H         1.477562        -0.351426         3.828588
