19
Iteration:  3906
 C        -1.053303         0.725339         2.391074
 C         0.299784         0.913835         1.780200
 C         0.872090         2.310399         1.525831
 C         2.213316         1.475502         1.185019
 O         1.776601         0.787619        -0.119094
 C         0.935385        -0.062023         0.647578
 C         0.309946        -1.296145         0.061204
 C         1.651312         0.230717         2.010302
 O         1.960846        -0.483818         3.154487
 H        -1.110440         0.745889         3.514842
 H        -1.897662         1.400968         2.185563
 H        -1.543691        -0.212546         2.236368
 H         0.589548         2.921023         0.597333
 H         0.954412         2.926484         2.500510
 H         3.187504         1.968691         1.192280
 H        -0.465730        -1.686646         0.781974
 H        -0.230586        -1.063131        -0.829201
 H         1.022666        -2.184872        -0.113689
 H         1.516503        -0.007092         3.857832
