19
Iteration:  4639charge 0 multiplicity 1
 C        -1.167007         0.588897         2.320096
 C         0.277067         0.865198         1.824302
 C         0.881929         2.258127         1.529453
 C         2.151832         1.436766         1.066648
 O         1.804782         0.664159        -0.053588
 C         0.949819        -0.020287         0.811279
 C         0.210394        -1.107668         0.056219
 C         1.627388         0.284718         2.034715
 O         2.120645        -0.317136         3.175253
 H        -1.566403         1.293758         3.013412
 H        -1.663577         0.809969         1.357888
 H        -1.376186        -0.363752         2.635819
 H         0.341010         2.871820         0.809158
 H         1.089664         2.715364         2.421708
 H         3.147128         1.838135         1.177642
 H         0.431184        -0.959890        -1.005231
 H         0.407980        -2.115979         0.358263
 H        -0.833161        -0.908814         0.287373
 H         2.601367        -1.154742         3.003795
