19
Iteration:   328
 C        -1.243586         0.799474         2.147952
 C         0.235086         0.974653         1.964031
 C         0.873787         2.299716         1.491759
 C         2.118330         1.460633         1.128970
 O         1.820473         0.670501        -0.060035
 C         0.983006        -0.108230         0.798655
 C         0.297996        -1.258811         0.181943
 C         1.635910         0.267404         2.080559
 O         2.157721        -0.428546         3.110399
 H        -1.739437         1.201645         2.999282
 H        -1.822619         1.257532         1.312950
 H        -1.300587        -0.296526         2.182912
 H         0.447992         2.828533         0.584900
 H         0.963065         3.182831         2.191091
 H         3.107531         2.007465         1.160150
 H        -0.437786        -1.692594         0.872024
 H        -0.207206        -0.910017        -0.711014
 H         0.916132        -1.992435        -0.205790
 H         2.182454        -1.431003         3.003889
