19
Iteration:  1346
 C        -1.233998         0.732749         2.336366
 C         0.155726         0.955774         1.707873
 C         0.969155         2.255249         1.566203
 C         2.246486         1.450015         1.286575
 O         1.910648         0.816234        -0.024120
 C         0.872897        -0.040990         0.708542
 C         0.273848        -1.268667         0.140280
 C         1.562993         0.281103         2.028785
 O         2.065040        -0.581707         2.913300
 H        -1.282266        -0.191627         2.868903
 H        -1.503561         1.536313         3.068102
 H        -2.073492         0.905937         1.603315
 H         0.738689         3.096011         0.902937
 H         1.268630         2.768084         2.568229
 H         3.227531         1.924922         1.423520
 H        -0.621898        -1.644083         0.702010
 H        -0.140609        -1.026987        -0.808426
 H         1.241835        -1.927118        -0.031414
 H         1.931023        -0.338692         3.881082
