19
Iteration:   996charge 0 multiplicity 1
 C        -1.022986         0.755079         2.399269
 C         0.278199         0.971260         1.820713
 C         0.873116         2.236674         1.532680
 C         2.217445         1.532930         1.142457
 O         1.828050         0.777857        -0.063948
 C         0.888598         0.060656         0.750222
 C         0.332813        -1.170832         0.080955
 C         1.617809         0.212671         2.035848
 O         1.853476        -0.711795         2.989323
 H        -0.885789         0.212407         3.322196
 H        -1.630766         1.666801         2.506076
 H        -1.686379         0.101626         1.776729
 H         0.560987         3.081077         0.834771
 H         1.092258         2.825047         2.454941
 H         3.100762         2.103500         1.179113
 H         0.193163        -2.081922         0.815531
 H        -0.531788        -0.981272        -0.584558
 H         1.272257        -1.570295        -0.446742
 H         1.944242        -0.358985         3.894367
