19
Iteration:  3248charge 0 multiplicity 1
 C        -1.132740         0.646270         2.290303
 C         0.222174         0.960275         1.742641
 C         0.932523         2.232994         1.473451
 C         2.155136         1.350912         1.247654
 O         1.919067         0.683006        -0.030280
 C         0.904664        -0.042785         0.671394
 C         0.184457        -1.100184         0.087655
 C         1.517876         0.244083         2.042338
 O         2.159835        -0.304236         3.162630
 H        -1.385942         1.386281         3.053983
 H        -1.942670         0.697264         1.417863
 H        -1.282603        -0.181934         2.894083
 H         0.621432         3.011397         0.767325
 H         1.047345         2.688135         2.413447
 H         3.236700         1.647756         1.431564
 H        -0.489940        -1.502027         0.832018
 H        -0.483746        -0.734813        -0.753705
 H         0.644390        -2.089259        -0.237039
 H         1.933481        -1.231839         3.110651
