19
Iteration:  4892
 C        -1.093249         0.688055         2.449033
 C         0.185343         0.983822         1.723614
 C         0.874146         2.303860         1.418481
 C         2.244251         1.422462         1.327464
 O         1.861766         0.838716        -0.047151
 C         0.884719        -0.040347         0.705568
 C         0.315510        -1.300068         0.063149
 C         1.565270         0.211755         1.983487
 O         2.008556        -0.430229         3.101881
 H        -1.283622         1.418941         3.306139
 H        -2.014047         0.952402         1.826261
 H        -1.159929        -0.312344         2.887624
 H         0.395772         2.817577         0.444775
 H         0.734225         2.914974         2.320137
 H         3.212524         1.965314         1.296449
 H        -0.257599        -1.078582        -0.890267
 H         1.125120        -2.199773        -0.021120
 H        -0.362733        -1.787392         0.749830
 H         2.532897        -1.209371         2.867814
