19
Iteration:  4716charge 0 multiplicity 1
 C        -1.141228         0.744972         2.490698
 C         0.225954         0.970801         1.822458
 C         0.839960         2.404619         1.472502
 C         2.130897         1.483297         1.111269
 O         1.885568         0.742569        -0.064336
 C         0.949785        -0.033829         0.627791
 C         0.448947        -1.370810         0.178647
 C         1.556140         0.290882         2.048514
 O         1.906502        -0.522973         3.029519
 H        -0.972818         1.153575         3.463138
 H        -1.900653         1.259849         1.938710
 H        -1.457828        -0.213216         2.610833
 H         0.529337         3.262104         0.893118
 H         1.035492         2.801061         2.421392
 H         3.089836         2.022640         1.120016
 H         0.253300        -1.365563        -0.903031
 H         1.272365        -2.122331         0.435558
 H        -0.536751        -1.719213         0.637891
 H         2.441785        -1.225068         2.625244
