19
Iteration:  4272
 C        -1.252738         0.760128         2.188506
 C         0.232667         0.992694         1.777725
 C         0.980063         2.285948         1.608015
 C         2.156902         1.513716         1.182719
 O         1.778111         0.818369        -0.138152
 C         0.910206        -0.078182         0.824675
 C         0.316230        -1.339638         0.297351
 C         1.648027         0.270343         2.000906
 O         2.078193        -0.606965         3.015761
 H        -1.612930         1.386011         3.006855
 H        -1.737821         1.302843         1.333691
 H        -1.675652        -0.303352         2.220775
 H         0.574984         2.961721         0.823834
 H         1.269919         2.998358         2.454102
 H         3.182288         1.850276         1.233319
 H         0.052046        -2.143226         0.966796
 H        -0.501675        -1.178164        -0.449139
 H         1.088923        -1.704199        -0.320681
 H         2.321965        -0.174450         3.837909
