19
Iteration:  4485charge 0 multiplicity 1
 C        -1.163588         0.735545         2.281155
 C         0.142315         0.975273         1.818078
 C         0.831472         2.379664         1.502480
 C         2.141527         1.486948         1.221385
 O         1.892046         0.696978         0.007858
 C         0.931265        -0.051073         0.773283
 C         0.369536        -1.309966         0.203949
 C         1.513792         0.372715         2.055484
 O         2.134757        -0.603330         2.867681
 H        -1.324379         1.284627         3.229878
 H        -1.980484         1.113303         1.486165
 H        -1.338462        -0.317144         2.397110
 H         0.437331         2.964843         0.554619
 H         0.970632         3.133168         2.294459
 H         3.238375         1.622507         1.394904
 H        -0.690653        -1.168727        -0.029945
 H         0.860107        -1.587673        -0.627894
 H         0.438044        -2.142838         0.985847
 H         2.326682        -0.230772         3.742153
