19
Iteration:   443charge 0 multiplicity 1
 C        -1.017630         0.689656         2.453123
 C         0.240245         1.055011         1.664815
 C         0.857211         2.351198         1.350491
 C         2.214289         1.517518         1.144472
 O         1.870620         0.751707        -0.091637
 C         0.913908        -0.027139         0.750552
 C         0.398820        -1.249102         0.223618
 C         1.552058         0.248399         2.007898
 O         1.841481        -0.670321         3.115242
 H        -1.367541         1.615197         3.039364
 H        -1.903440         0.257289         2.024355
 H        -0.653384         0.039126         3.233111
 H         0.538535         2.996547         0.535856
 H         0.945969         2.924690         2.231823
 H         3.095678         2.089782         0.976842
 H         0.074328        -1.870252         0.961567
 H        -0.351390        -1.098655        -0.545644
 H         1.333178        -1.719260        -0.254596
 H         1.542607        -0.326043         3.982569
