19
Iteration:  3055charge 0 multiplicity 1
 C        -1.154964         0.738090         2.235460
 C         0.212923         0.933301         1.724722
 C         0.922614         2.340132         1.472129
 C         2.182635         1.364583         1.279768
 O         1.924722         0.729950        -0.018244
 C         0.901217        -0.072533         0.710514
 C         0.127338        -1.230445         0.118242
 C         1.521107         0.201226         2.053359
 O         2.128805        -0.416289         3.142444
 H        -1.266313         1.500230         2.965621
 H        -1.916843         0.926904         1.511513
 H        -1.370177        -0.244795         2.669546
 H         0.627018         2.963767         0.653755
 H         0.977371         2.957275         2.327345
 H         3.289344         1.571959         1.372689
 H        -0.398607        -1.737969         0.853507
 H        -0.581194        -0.911041        -0.549473
 H         0.728036        -1.947510        -0.391789
 H         3.061281        -0.149271         3.184998
