19
Iteration:  1697charge 0 multiplicity 1
 C        -1.143011         0.653031         2.191699
 C         0.239438         0.937939         1.745600
 C         0.860753         2.300515         1.443202
 C         2.161167         1.454045         1.177816
 O         1.831295         0.672897         0.018795
 C         0.898694        -0.089440         0.787912
 C         0.218498        -1.190283         0.062536
 C         1.662873         0.294597         2.067909
 O         2.161828        -0.447401         3.201154
 H        -1.315214         0.366413         3.254749
 H        -1.724551         1.601311         2.159861
 H        -1.625842        -0.173053         1.589490
 H         0.285998         2.828092         0.701591
 H         1.091908         2.970546         2.380946
 H         3.119552         1.891265         1.021965
 H        -0.544173        -1.693984         0.596901
 H        -0.277219        -0.706198        -0.756282
 H         1.061820        -1.923707        -0.375161
 H         1.825508         0.142963         3.904189
