19
Iteration:  3319charge 0 multiplicity 1
 C        -1.134491         0.759182         2.416621
 C         0.201540         0.948402         1.699702
 C         1.000616         2.347101         1.465704
 C         2.209674         1.440598         1.162852
 O         1.792917         0.780028        -0.034315
 C         0.931976        -0.120239         0.712594
 C         0.398644        -1.298345         0.105176
 C         1.607601         0.336635         2.034771
 O         1.845997        -0.531931         3.072477
 H        -1.230752         1.096445         3.513564
 H        -1.956207         1.286529         1.988472
 H        -1.305133        -0.405640         2.385339
 H         0.678384         3.096834         0.601825
 H         1.235382         2.779388         2.589578
 H         3.241305         1.746302         1.182700
 H         0.293239        -2.097817         0.917762
 H        -0.581662        -1.273429        -0.390446
 H         1.022902        -1.816967        -0.634843
 H         2.343661        -0.097465         3.771021
