19
Iteration:   954
 C        -1.236943         0.762006         2.310921
 C         0.182498         0.964302         1.718160
 C         1.018150         2.206902         1.646041
 C         2.169330         1.389261         1.293344
 O         1.860529         0.819878        -0.057663
 C         0.831114         0.013945         0.698180
 C         0.229839        -1.211601         0.089075
 C         1.560887         0.231636         1.997071
 O         2.236539        -0.538434         2.973705
 H        -1.315964        -0.248677         2.715608
 H        -1.697405         1.496332         2.996792
 H        -1.958392         0.894663         1.456191
 H         0.643723         2.961345         0.859488
 H         1.082139         2.688935         2.620508
 H         3.160332         1.711410         1.370446
 H        -0.264647        -1.765621         0.938689
 H        -0.478524        -0.935311        -0.712581
 H         1.094352        -1.993835        -0.030494
 H         1.692603        -0.346563         3.797367
