19
Iteration:  2270
 C        -1.189884         0.748244         2.205541
 C         0.249441         0.919480         1.749881
 C         0.905882         2.300283         1.528080
 C         2.164284         1.462910         1.221270
 O         1.820714         0.766466        -0.048131
 C         0.973147        -0.156044         0.799198
 C         0.166022        -1.167360         0.185864
 C         1.613108         0.198973         2.082021
 O         2.197372        -0.538223         3.046644
 H        -1.495887         1.608500         2.906009
 H        -1.813947         0.650620         1.327569
 H        -1.409339        -0.224275         2.674092
 H         0.549476         2.866563         0.605109
 H         0.853675         2.992029         2.418610
 H         3.235132         1.939961         1.105861
 H        -0.797836        -1.459930         0.691927
 H        -0.367064        -0.617649        -0.747450
 H         0.727082        -2.020395        -0.201130
 H         2.215818         0.167111         3.695156
