19
Iteration:  3827charge 0 multiplicity 1
 C        -1.294743         0.809334         2.187184
 C         0.192390         0.932604         1.743962
 C         0.867825         2.219129         1.523306
 C         2.194848         1.442263         1.270840
 O         1.838414         0.761679        -0.077554
 C         0.908628         0.033195         0.747489
 C         0.323243        -1.231256         0.314490
 C         1.615369         0.282433         1.978303
 O         2.167397        -0.628568         2.991084
 H        -1.513326         0.732726         3.347740
 H        -1.834301         1.681954         1.867576
 H        -1.833258        -0.042047         1.821553
 H         0.646997         2.959974         0.566722
 H         0.942234         2.850196         2.461525
 H         3.179858         1.941062         1.415829
 H         0.133702        -1.832858         1.264582
 H        -0.598404        -1.219117        -0.262628
 H         1.102611        -1.690973        -0.307750
 H         2.552872        -0.127691         3.724440
