19
Iteration:  1987charge 0 multiplicity 1
 C        -1.125328         0.777385         2.509890
 C         0.223154         0.975614         1.792253
 C         1.003876         2.293613         1.537933
 C         2.233416         1.485189         1.185499
 O         1.772728         0.842871        -0.088409
 C         0.884701        -0.049612         0.681820
 C         0.503817        -1.347641         0.148854
 C         1.534192         0.246733         1.943867
 O         1.835920        -0.627175         2.981277
 H        -1.966481         1.368523         2.004835
 H        -1.361361        -0.265287         2.568322
 H        -1.030272         1.117573         3.538434
 H         0.786485         2.961229         0.645757
 H         1.082948         2.951873         2.392699
 H         3.148210         1.940296         1.291686
 H        -0.095203        -2.017882         0.677886
 H        -0.096044        -1.106785        -0.838609
 H         1.447664        -1.703287        -0.221251
 H         1.801908        -0.035789         3.756193
