19
Iteration:  1316
 C        -1.155844         0.637832         2.231530
 C         0.278151         0.980629         1.836842
 C         0.885739         2.338584         1.539938
 C         2.196823         1.442069         1.241396
 O         1.854226         0.767460        -0.013149
 C         0.918105        -0.072222         0.732315
 C         0.149902        -1.079361         0.044419
 C         1.568167         0.220966         2.066322
 O         2.113542        -0.605023         3.063852
 H        -1.165724        -0.091758         3.103388
 H        -1.644040         1.616210         2.427585
 H        -1.745850         0.190153         1.370992
 H         0.487165         2.903376         0.617529
 H         1.371401         2.683772         2.466272
 H         3.210605         1.832898         1.246562
 H        -0.677059        -1.425546         0.588171
 H        -0.115025        -0.680454        -0.963544
 H         0.918550        -1.971728        -0.067599
 H         2.343867        -0.040353         3.800453
