19
Iteration:  1386
 C        -1.134371         0.839834         2.375782
 C         0.236951         0.974378         1.781305
 C         0.935442         2.300014         1.478188
 C         2.180925         1.565368         1.140578
 O         1.783096         0.829900        -0.111980
 C         0.912049         0.054680         0.756316
 C         0.510102        -1.271493         0.189435
 C         1.589769         0.223387         2.068315
 O         1.853415        -0.820089         3.011963
 H        -1.650643        -0.067278         2.022997
 H        -0.997975         0.878484         3.459029
 H        -1.715634         1.732244         2.107771
 H         0.378932         2.792189         0.672795
 H         1.121518         2.773563         2.415467
 H         3.259957         1.991889         1.282935
 H         0.151762        -2.074817         0.913748
 H        -0.151258        -1.180515        -0.686220
 H         1.349898        -1.711534        -0.164397
 H         1.850299        -0.288753         3.800398
