19
Iteration:  1558charge 0 multiplicity 1
 C        -1.175739         0.782165         2.484120
 C         0.174089         0.944592         1.749763
 C         0.893427         2.284641         1.493342
 C         2.184531         1.475002         1.204447
 O         1.908200         0.768066        -0.115260
 C         0.973032        -0.021126         0.694874
 C         0.473500        -1.289228         0.185777
 C         1.577811         0.307726         1.997704
 O         1.897794        -0.612319         2.994043
 H        -1.756472         1.741539         2.543347
 H        -1.703503         0.305095         1.663845
 H        -1.164353         0.194620         3.385160
 H         0.514846         2.991613         0.712500
 H         0.767401         2.768950         2.440099
 H         3.104831         1.989750         1.052784
 H        -0.271923        -1.563501         0.944384
 H        -0.150004        -1.255510        -0.786339
 H         1.235381        -2.038096         0.094824
 H         1.882038        -0.193718         3.870824
