19
Iteration:  4302charge 0 multiplicity 1
 C        -1.139831         0.745010         2.292610
 C         0.172445         1.017621         1.677501
 C         1.004534         2.322217         1.551779
 C         2.181526         1.444993         1.179591
 O         1.819147         0.771773        -0.030913
 C         0.817178         0.016978         0.716852
 C         0.398221        -1.321682         0.286087
 C         1.529563         0.248701         1.985978
 O         2.032506        -0.563711         2.986639
 H        -1.300196         1.218156         3.338682
 H        -1.815529         1.338782         1.658585
 H        -1.582551        -0.303630         2.247651
 H         0.583859         3.044785         0.854333
 H         1.200081         2.748911         2.549733
 H         3.285446         1.680609         1.283111
 H         0.579135        -2.125467         1.063629
 H        -0.581828        -1.640882        -0.189172
 H         1.199791        -1.537969        -0.557812
 H         1.797980        -0.194593         3.876859
