19
Iteration:  1738
 C        -1.196864         0.656726         2.404246
 C         0.220496         0.952103         1.702155
 C         0.883831         2.353093         1.506890
 C         2.212869         1.488650         1.131163
 O         1.944197         0.758258        -0.047308
 C         0.930612         0.012268         0.681672
 C         0.353166        -1.321187         0.189948
 C         1.632496         0.189814         1.947776
 O         1.900994        -0.456163         3.063669
 H        -0.838640         0.364842         3.354488
 H        -1.700745         1.630538         2.607002
 H        -1.987397        -0.131907         2.186934
 H         0.547169         2.870511         0.632159
 H         1.038494         2.973877         2.368116
 H         3.209003         1.861697         1.313230
 H        -0.230092        -1.729560         0.990242
 H        -0.166211        -1.251651        -0.706213
 H         1.144476        -2.140459         0.028879
 H         1.583184        -0.015306         3.896247
