19
Iteration:  1642
 C        -1.167957         0.749756         2.240405
 C         0.204808         0.914944         1.660475
 C         0.946585         2.322287         1.510916
 C         2.148703         1.563974         1.320738
 O         1.928737         0.712882        -0.055825
 C         0.907612        -0.078746         0.734629
 C         0.260805        -1.308815         0.178628
 C         1.526969         0.248045         2.016434
 O         2.099224        -0.480781         3.041241
 H        -1.039865         0.882201         3.328197
 H        -2.097380         1.299565         1.988233
 H        -1.650227        -0.268404         2.335397
 H         0.448284         2.743951         0.689154
 H         0.728051         2.811380         2.550656
 H         3.103068         2.021027         1.192729
 H         0.073752        -1.992128         0.954465
 H        -0.483785        -1.082540        -0.501459
 H         1.123969        -1.885615        -0.423996
 H         1.983601         0.061168         3.876658
