19
Iteration:  4352
 C        -1.054758         0.763175         2.518180
 C         0.231995         0.943687         1.769954
 C         0.789658         2.262162         1.349916
 C         2.150201         1.592127         1.109888
 O         1.959012         0.707566        -0.092672
 C         1.037517        -0.051934         0.750160
 C         0.357405        -1.199516         0.056745
 C         1.625702         0.256349         2.088772
 O         1.820563        -0.630683         3.122166
 H        -0.834018         1.089976         3.513093
 H        -1.965925         1.317078         2.160573
 H        -1.350598        -0.252497         2.679047
 H         0.503898         2.691087         0.325504
 H         0.800676         2.928391         2.240001
 H         3.131490         2.105408         1.073340
 H        -0.119963        -1.905454         0.695244
 H        -0.472096        -0.844504        -0.497958
 H         0.974912        -1.682399        -0.676154
 H         1.767516        -0.234939         3.999446
