19
Iteration:  1782charge 0 multiplicity 1
 C        -1.151897         0.773331         2.498176
 C         0.215391         0.998141         1.722588
 C         0.937151         2.396803         1.418151
 C         2.238664         1.542181         1.146285
 O         1.795250         0.750670        -0.083010
 C         0.920177        -0.050206         0.763787
 C         0.527228        -1.374613         0.186709
 C         1.575192         0.336757         2.030274
 O         1.805625        -0.681834         3.033470
 H        -0.938883         0.469463         3.489284
 H        -1.695005         1.713903         2.314528
 H        -1.803304         0.048497         1.925181
 H         0.694912         2.821229         0.484590
 H         0.785230         3.009261         2.277460
 H         3.175771         1.915785         0.818019
 H         0.240364        -2.068090         0.899078
 H         0.000518        -1.240837        -0.670294
 H         1.534162        -1.808616        -0.133274
 H         1.798879        -0.192107         3.904096
