19
Iteration:  2186charge 0 multiplicity 1
 C        -1.084681         0.757248         2.470326
 C         0.251322         1.003424         1.750674
 C         0.878092         2.326741         1.486360
 C         2.193285         1.472232         1.166712
 O         1.913376         0.833014        -0.070465
 C         0.890162         0.008042         0.685881
 C         0.360203        -1.271513         0.181451
 C         1.574237         0.180373         1.954301
 O         1.850845        -0.660910         2.992624
 H        -1.731198         1.701828         2.718519
 H        -1.687549        -0.057405         2.066614
 H        -0.755524         0.498821         3.484231
 H         0.493916         2.836162         0.588217
 H         1.070955         2.838470         2.432553
 H         3.225969         1.986639         1.309575
 H         0.058752        -1.833614         1.021452
 H        -0.245211        -1.290551        -0.718599
 H         1.202100        -1.992857         0.041912
 H         1.942308         0.079714         3.650721
