19
Iteration:  2380charge 0 multiplicity 1
 C        -1.051660         0.815931         2.524431
 C         0.182859         0.941135         1.729222
 C         0.969890         2.300084         1.458105
 C         2.205980         1.449674         1.133166
 O         1.850992         0.804760        -0.071020
 C         0.976105        -0.043765         0.726941
 C         0.435713        -1.399882         0.143906
 C         1.449849         0.291680         1.994333
 O         1.837910        -0.544463         2.994289
 H        -0.818303         0.884075         3.648791
 H        -1.644127         1.694093         2.392003
 H        -1.639971        -0.055662         2.280365
 H         0.491638         3.057111         0.750876
 H         1.096375         2.880592         2.412907
 H         3.391828         1.761662         1.067334
 H         0.283009        -2.157021         0.879739
 H        -0.499234        -1.208225        -0.425287
 H         1.220516        -1.804033        -0.492710
 H         1.623866        -0.235249         3.891972
