19
Iteration:  2599
 C        -1.121793         0.664992         2.378303
 C         0.257795         1.023151         1.752350
 C         1.003485         2.353801         1.559466
 C         2.180303         1.429325         1.232954
 O         1.879920         0.780505        -0.088245
 C         0.914938        -0.029993         0.666615
 C         0.247772        -1.244059         0.112963
 C         1.519873         0.262698         2.052928
 O         1.954614        -0.577658         3.001563
 H        -1.999749         0.309028         1.737164
 H        -0.907068        -0.037565         3.158406
 H        -1.507994         1.547569         2.924332
 H         0.771065         2.898333         0.660907
 H         1.176316         3.006865         2.365715
 H         3.380676         1.626648         1.122684
 H        -0.103579        -1.769063         0.965880
 H        -0.686065        -1.014071        -0.397408
 H         1.007140        -1.831332        -0.426644
 H         2.045576        -0.258997         3.911016
