19
Iteration:  4276charge 0 multiplicity 1
 C        -1.260738         0.767233         2.192367
 C         0.186665         0.997864         1.773781
 C         1.021962         2.307284         1.619492
 C         2.157804         1.468768         1.189472
 O         1.762200         0.821890        -0.168149
 C         0.942491        -0.057127         0.807291
 C         0.350840        -1.349766         0.295271
 C         1.636293         0.281158         2.040301
 O         2.071495        -0.609641         3.013575
 H        -1.592456         1.294870         3.068927
 H        -1.849141         1.259406         1.393341
 H        -1.582239        -0.213108         2.210221
 H         0.565804         2.955808         0.832140
 H         1.264115         2.928423         2.461693
 H         3.151336         1.915805         1.205856
 H         0.056743        -2.141565         0.987926
 H        -0.491794        -1.207536        -0.346916
 H         0.999925        -1.839342        -0.485297
 H         2.274780        -0.094349         3.836698
