19
Iteration:  2039charge 0 multiplicity 1
 C        -1.190876         0.676295         2.250414
 C         0.222069         0.955517         1.770827
 C         0.892300         2.234774         1.483973
 C         2.228800         1.419233         1.205130
 O         1.856021         0.822038        -0.048803
 C         0.921519        -0.054399         0.837536
 C         0.195809        -1.124107         0.168888
 C         1.617138         0.346187         2.103769
 O         2.144951        -0.649747         2.958605
 H        -1.771541         0.438359         1.334050
 H        -1.209815        -0.143801         3.004987
 H        -1.717279         1.531257         2.690880
 H         0.538355         2.880114         0.691058
 H         0.961670         2.833630         2.386491
 H         3.166743         1.838812         1.396736
 H        -0.691335        -1.354206         0.814726
 H        -0.254923        -0.660136        -0.730302
 H         0.769056        -1.924159        -0.166836
 H         2.121119        -0.401016         3.882029
