19
Iteration:  4638charge 0 multiplicity 1
 C        -1.169005         0.596069         2.319934
 C         0.279386         0.860680         1.819733
 C         0.878827         2.254517         1.533686
 C         2.148488         1.431781         1.058657
 O         1.805617         0.664107        -0.043413
 C         0.956411        -0.012892         0.803956
 C         0.211922        -1.110140         0.054862
 C         1.620682         0.283281         2.035459
 O         2.126159        -0.313495         3.175545
 H        -1.556779         1.280951         3.014369
 H        -1.695401         0.791735         1.384923
 H        -1.336497        -0.359112         2.623968
 H         0.353092         2.867449         0.814834
 H         1.069455         2.704708         2.407794
 H         3.151028         1.821916         1.186129
 H         0.450919        -0.963927        -1.013886
 H         0.395121        -2.093195         0.345074
 H        -0.862578        -0.889585         0.325038
 H         2.566013        -1.162801         3.001155
