19
Iteration:  1795charge 0 multiplicity 1
 C        -1.151349         0.816032         2.463863
 C         0.210401         0.998937         1.794325
 C         0.903595         2.264792         1.390049
 C         2.210138         1.519379         1.130366
 O         1.876633         0.749659        -0.069533
 C         0.848031         0.038082         0.695539
 C         0.529110        -1.393565         0.167340
 C         1.552116         0.286066         2.067504
 O         1.874434        -0.609591         3.009005
 H        -1.247283         0.610044         3.494806
 H        -1.794489         1.720143         2.449462
 H        -1.676112        -0.050081         1.919877
 H         0.468960         2.913273         0.687261
 H         1.136019         2.960798         2.257040
 H         3.178181         2.003228         1.315662
 H         0.031687        -1.969985         0.902492
 H        -0.213738        -1.467316        -0.561938
 H         1.547313        -1.805267        -0.240536
 H         1.883019        -0.272768         3.937975
