19
Iteration:  1725charge 0 multiplicity 1
 C        -1.172753         0.641657         2.412096
 C         0.171452         0.955480         1.665418
 C         0.934365         2.269128         1.450257
 C         2.171952         1.440094         1.246954
 O         1.914788         0.766390        -0.075464
 C         1.000557        -0.095398         0.659955
 C         0.310220        -1.271092         0.172245
 C         1.544672         0.307232         1.984591
 O         2.022110        -0.434063         3.113624
 H        -1.157784         0.248086         3.469029
 H        -1.788220         1.553771         2.424013
 H        -1.642768        -0.064458         1.739566
 H         0.544126         3.061616         0.770959
 H         1.083741         2.752188         2.377249
 H         3.208905         1.838104         1.231792
 H        -0.490377        -1.525449         0.918977
 H        -0.325961        -0.977370        -0.699296
 H         0.967468        -2.043071        -0.040837
 H         1.651709         0.114606         3.803915
