19
Iteration:  4072
 C        -1.254903         0.830668         2.159773
 C         0.265181         0.901911         1.859701
 C         0.879017         2.298260         1.543123
 C         2.184048         1.409549         1.094452
 O         1.786566         0.798704        -0.059835
 C         0.955913        -0.048184         0.859281
 C         0.301368        -1.268524         0.212886
 C         1.620383         0.297181         2.084998
 O         2.106497        -0.595368         2.979521
 H        -1.333003         1.167355         3.204556
 H        -1.830611         1.486366         1.511818
 H        -1.591022        -0.198363         2.100619
 H         0.438964         2.895031         0.702755
 H         1.060815         2.898744         2.530611
 H         3.133639         1.900252         1.130620
 H        -0.009481        -1.984854         0.954671
 H        -0.521973        -1.066680        -0.453861
 H         1.101858        -1.808489        -0.336716
 H         2.410158        -0.354371         3.877183
