19
Iteration:    22charge 0 multiplicity 1
 C        -1.124272         0.852053         2.367244
 C         0.301185         0.919573         1.830462
 C         0.900110         2.244437         1.419352
 C         2.215063         1.559822         1.012107
 O         1.808195         0.809582        -0.167431
 C         0.900825         0.004146         0.704489
 C         0.512587        -1.353213         0.210880
 C         1.614214         0.253867         2.108994
 O         1.788261        -0.662632         3.195167
 H        -1.229986         1.317132         3.318491
 H        -1.787034         1.325236         1.649467
 H        -1.465146        -0.130961         2.507277
 H         0.410439         2.777176         0.637443
 H         1.011213         2.937135         2.231259
 H         3.129193         2.131427         0.882065
 H         0.112627        -1.929474         0.976541
 H        -0.233318        -1.285017        -0.594737
 H         1.383019        -1.851980        -0.212175
 H         1.842982        -0.173495         4.026255
