19
Iteration:  2018charge 0 multiplicity 1
 C        -1.155944         0.709315         2.354016
 C         0.182639         0.969725         1.709442
 C         0.915047         2.337142         1.597424
 C         2.192943         1.527352         1.198235
 O         1.894673         0.726043        -0.023629
 C         0.921238         0.006075         0.680908
 C         0.282005        -1.205538         0.162806
 C         1.539634         0.250880         1.974830
 O         2.057545        -0.668193         2.980213
 H        -2.131383         0.730179         1.629775
 H        -1.048946        -0.202102         2.987220
 H        -1.350307         1.514401         3.094590
 H         0.623246         3.038787         0.806512
 H         1.040061         2.902569         2.521955
 H         3.103944         2.015475         1.324690
 H        -0.366015        -1.624673         0.968584
 H        -0.212245        -1.146839        -0.899258
 H         1.018401        -1.913098         0.021147
 H         2.118789        -0.144837         3.808540
