19
Iteration:  2919
 C        -1.138439         0.834205         2.500750
 C         0.238595         0.887500         1.771652
 C         0.960007         2.273023         1.358345
 C         2.221320         1.537363         1.123918
 O         1.804857         0.798221        -0.071023
 C         0.937699        -0.012619         0.697116
 C         0.431444        -1.319996         0.182379
 C         1.576068         0.228955         1.946379
 O         1.801237        -0.591474         3.170657
 H        -1.053516         0.984274         3.570906
 H        -1.812628         1.593412         2.035852
 H        -1.673487        -0.055809         2.251687
 H         0.615568         2.969173         0.564617
 H         1.108892         3.062327         2.154703
 H         3.277673         2.075024         1.165444
 H        -0.028462        -1.874978         1.046783
 H        -0.234057        -1.093663        -0.635457
 H         1.223158        -1.958101        -0.153232
 H         2.706270        -0.911014         3.149087
