19
Iteration:   246
 C        -1.041964         0.823327         2.459776
 C         0.157077         0.983122         1.634825
 C         0.923290         2.320489         1.384500
 C         2.213263         1.522259         1.068244
 O         1.829674         0.685732        -0.073918
 C         0.939714        -0.024011         0.745629
 C         0.469990        -1.308317         0.211394
 C         1.512035         0.268538         2.063349
 O         1.851277        -0.603629         3.124012
 H        -0.696874         0.897788         3.518893
 H        -1.925281         1.346408         2.182135
 H        -1.467596        -0.200482         2.464538
 H         0.532896         2.937093         0.540469
 H         1.079439         2.871260         2.323173
 H         3.142431         2.068208         1.068247
 H         0.223109        -2.146848         0.867353
 H        -0.374919        -1.148050        -0.446221
 H         1.405887        -1.630116        -0.359097
 H         1.657089        -0.096623         3.930031
