19
Iteration:   893
 C        -1.101661         0.681956         2.347762
 C         0.223773         0.984650         1.772666
 C         0.929857         2.259495         1.491979
 C         2.154021         1.460726         1.204361
 O         1.796733         0.752728        -0.099617
 C         0.926220         0.054507         0.753132
 C         0.234279        -1.122250         0.090815
 C         1.599342         0.222470         2.108449
 O         2.084690        -0.619518         3.055164
 H        -1.633742        -0.026937         1.656134
 H        -1.192182         0.251352         3.360573
 H        -1.672411         1.610809         2.267295
 H         0.556172         2.811031         0.640916
 H         0.933983         2.815178         2.448578
 H         3.287910         1.764105         1.298185
 H        -0.457390        -1.693808         0.680969
 H        -0.262569        -0.965687        -0.906719
 H         1.030214        -1.794637        -0.177517
 H         2.277503        -0.161449         3.921437
