19
Iteration:  4163
 C        -1.031803         0.646501         2.467258
 C         0.347322         0.921132         1.764390
 C         1.039858         2.208698         1.422792
 C         2.219617         1.515918         1.105805
 O         1.796094         0.807107        -0.139442
 C         0.887190        -0.021579         0.733202
 C         0.271006        -1.321534         0.020197
 C         1.585779         0.303061         2.086727
 O         1.823779        -0.464724         3.179024
 H        -1.113308         1.163423         3.392982
 H        -1.980712         0.901818         1.999784
 H        -0.950714        -0.445596         2.736904
 H         0.497786         2.982598         0.815808
 H         1.019380         2.567475         2.577742
 H         3.116283         2.108150         0.792375
 H        -0.518081        -1.661641         0.717086
 H        -0.003274        -0.962955        -1.034411
 H         1.136526        -1.898519        -0.148273
 H         1.607236        -0.017095         4.017269
