19
Iteration:  2956
 C        -1.025025         0.713058         2.493738
 C         0.220565         1.071489         1.697652
 C         0.971868         2.387264         1.444595
 C         2.177790         1.472700         1.185397
 O         1.897674         0.647341        -0.042405
 C         0.832360        -0.014845         0.633285
 C         0.398996        -1.304663         0.148579
 C         1.467590         0.230249         1.994339
 O         1.860043        -0.441651         3.098595
 H        -1.058567         1.272976         3.432619
 H        -1.938366         0.993192         1.969287
 H        -1.033953        -0.385144         2.766938
 H         0.482570         3.012280         0.781530
 H         1.140248         2.764291         2.411833
 H         3.238015         1.875566         1.440078
 H        -0.176994        -1.818240         0.844488
 H        -0.260121        -1.252656        -0.682066
 H         1.276985        -1.879284        -0.169873
 H         2.228123        -1.286771         2.842035
