19
Iteration:   763
 C        -1.209945         0.760479         2.279685
 C         0.123643         0.898977         1.610380
 C         0.913583         2.280418         1.582688
 C         2.221398         1.392294         1.249744
 O         1.912184         0.784243        -0.001958
 C         0.883274        -0.034279         0.731242
 C         0.181374        -1.283240         0.180285
 C         1.562244         0.343778         2.032226
 O         2.191691        -0.535299         3.022549
 H        -1.636006         1.723795         2.496636
 H        -1.814624         0.189849         1.588923
 H        -1.227890         0.112802         3.126240
 H         0.615937         3.024349         0.838217
 H         0.931132         2.854270         2.572634
 H         3.336188         1.827886         1.220132
 H        -0.493338        -1.970618         0.810852
 H        -0.417135        -0.847275        -0.682892
 H         0.879908        -1.996975        -0.230934
 H         2.620993         0.036940         3.643907
