19
Iteration:  3936charge 0 multiplicity 1
 C        -1.006730         0.674812         2.494699
 C         0.192475         0.973065         1.729248
 C         0.940569         2.255943         1.497860
 C         2.177959         1.390865         1.143714
 O         1.845360         0.744168        -0.112936
 C         0.912240        -0.014250         0.677004
 C         0.379148        -1.287705         0.026129
 C         1.513501         0.346753         1.989647
 O         1.899491        -0.464181         3.125786
 H        -0.799979         1.187523         3.479409
 H        -1.990996         0.857716         2.217983
 H        -1.056832        -0.391245         2.616694
 H         0.667860         3.200693         0.956547
 H         1.257356         2.692126         2.433915
 H         3.126224         1.901395         1.390248
 H        -0.431236        -1.742002         0.624095
 H        -0.122760        -0.905230        -0.806970
 H         1.152854        -1.968802        -0.110397
 H         1.524887        -0.144168         3.991387
