19
Iteration:  1824
 C        -1.203495         0.819572         2.350236
 C         0.161040         0.930535         1.648371
 C         0.884417         2.326478         1.525204
 C         2.207870         1.510696         1.287137
 O         1.860399         0.710390        -0.083186
 C         0.988735        -0.088298         0.697045
 C         0.366442        -1.341524         0.191231
 C         1.539985         0.281364         2.046145
 O         2.085649        -0.542994         3.000482
 H        -1.192171         0.899821         3.503894
 H        -1.943087         1.560916         1.985460
 H        -1.757505        -0.064149         2.010536
 H         0.592488         3.124128         0.769152
 H         0.849361         2.876070         2.442832
 H         3.195438         1.851826         1.464033
 H        -0.216990        -1.840640         0.982762
 H        -0.434784        -1.071906        -0.571214
 H         1.091907        -1.970819        -0.322989
 H         1.905285        -0.073785         3.816098
