19
Iteration:  3358
 C        -1.172146         0.812379         2.389344
 C         0.188256         0.935278         1.744287
 C         0.910714         2.284747         1.497684
 C         2.158432         1.400822         1.203786
 O         1.891229         0.746058        -0.043333
 C         0.929739         0.039333         0.646804
 C         0.404494        -1.306084         0.230511
 C         1.564368         0.256942         2.008283
 O         1.909416        -0.494393         3.017556
 H        -1.110922         0.950796         3.421564
 H        -1.868733         1.527858         1.810073
 H        -1.655338        -0.114662         2.299629
 H         0.451255         2.930524         0.846207
 H         1.124209         2.775748         2.335282
 H         3.209944         1.795165         1.240049
 H         0.063566        -1.811624         1.120776
 H        -0.420284        -1.249371        -0.448615
 H         1.331279        -1.767164        -0.156879
 H         2.809903        -0.899850         3.002835
