19
Iteration:  4025
 C        -1.213438         0.728987         2.183907
 C         0.239233         0.933745         1.803455
 C         0.934997         2.232273         1.580136
 C         2.259314         1.427043         1.237023
 O         1.849242         0.798576        -0.071223
 C         0.896075         0.049510         0.802445
 C         0.237764        -1.298979         0.255081
 C         1.533603         0.359639         2.030524
 O         2.161663        -0.556332         2.922592
 H        -1.696783         1.582880         2.808220
 H        -1.880529         0.748223         1.267760
 H        -1.526334        -0.192369         2.702836
 H         0.471970         2.794013         0.703730
 H         1.087945         2.781192         2.498278
 H         3.337761         1.707978         1.263327
 H        -0.370439        -1.874487         0.976426
 H        -0.540245        -1.017809        -0.414248
 H         0.733572        -2.129016        -0.291343
 H         2.128078        -0.218524         3.857987
