19
Iteration:  4700charge 0 multiplicity 1
 C        -1.138106         0.728846         2.476943
 C         0.127331         0.993266         1.724501
 C         0.931350         2.208022         1.576959
 C         2.195241         1.539880         1.123945
 O         1.926721         0.746484        -0.123287
 C         0.897631        -0.029709         0.695124
 C         0.401545        -1.317060         0.232848
 C         1.532517         0.332051         2.000776
 O         1.935750        -0.492621         3.014365
 H        -1.215635         1.252996         3.474939
 H        -2.067452         1.028297         1.901562
 H        -1.327590        -0.450399         2.502966
 H         0.351683         2.830412         0.830898
 H         1.023777         2.961589         2.487245
 H         3.230912         1.883354         1.239806
 H         0.291853        -1.324279        -0.868458
 H         0.948660        -2.213154         0.464754
 H        -0.705760        -1.469064         0.545448
 H         2.856157        -0.777108         2.896032
