19
Iteration:   824
 C        -0.953866         0.741689         2.485036
 C         0.283290         0.902730         1.733907
 C         0.935608         2.321673         1.446376
 C         2.191665         1.537752         1.162292
 O         1.744552         0.803452        -0.057124
 C         0.845758         0.013601         0.669376
 C         0.407003        -1.260839         0.106814
 C         1.636704         0.268621         2.058722
 O         1.833123        -0.674520         3.089592
 H        -1.742854         1.168929         1.775335
 H        -1.228237        -0.351335         2.672232
 H        -1.041738         1.347471         3.463954
 H         0.655651         2.851229         0.503008
 H         1.011462         2.909641         2.327118
 H         3.159087         1.968045         1.010025
 H        -0.000189        -1.882128         0.857670
 H        -0.297615        -1.088656        -0.707774
 H         1.321749        -1.690257        -0.490418
 H         1.319589        -0.360538         3.828458
