19
Iteration:   923
 C        -1.165523         0.762001         2.232976
 C         0.256043         0.958284         1.866966
 C         0.916330         2.240311         1.599378
 C         2.101761         1.516916         1.189090
 O         1.791014         0.761034        -0.084114
 C         0.987620        -0.059733         0.795145
 C         0.167852        -1.185234         0.117448
 C         1.697355         0.237013         2.081802
 O         2.194395        -0.607749         3.017906
 H        -1.563564        -0.184115         1.748260
 H        -1.522949         0.980063         3.287233
 H        -1.789551         1.404269         1.506284
 H         0.426425         2.927955         0.841371
 H         1.003174         2.863942         2.458905
 H         3.127886         1.917987         1.182318
 H        -0.664188        -1.493156         0.679586
 H        -0.176321        -0.717091        -0.845550
 H         0.739885        -2.079969        -0.476836
 H         1.688408        -0.470691         3.799428
