19
Iteration:  2430
 C        -1.188629         0.719992         2.275941
 C         0.218616         0.956704         1.843759
 C         0.946836         2.267592         1.478160
 C         2.179343         1.473987         1.149034
 O         1.823403         0.697952        -0.038554
 C         0.984997        -0.061857         0.823117
 C         0.226097        -1.203023         0.153022
 C         1.673728         0.297376         2.042004
 O         2.047861        -0.539259         3.002731
 H        -1.438638         1.243551         3.179118
 H        -1.899722         1.049792         1.421085
 H        -1.414130        -0.380596         2.384632
 H         0.634176         2.948774         0.702229
 H         1.104404         2.933205         2.337574
 H         3.076849         1.980911         1.176786
 H        -0.655108        -1.555403         0.840354
 H        -0.370465        -0.773173        -0.658968
 H         0.871285        -2.066946        -0.117188
 H         2.224501        -0.092864         3.836435
