19
Iteration:   693charge 0 multiplicity 1
 C        -1.175746         0.740594         2.321117
 C         0.196488         1.004275         1.640471
 C         0.895652         2.374107         1.504436
 C         2.195365         1.468264         1.236356
 O         1.807892         0.704684        -0.138855
 C         0.981950        -0.066864         0.784679
 C         0.317534        -1.279861         0.223514
 C         1.550906         0.281406         2.080822
 O         2.128524        -0.572982         3.043193
 H        -1.065946         0.834180         3.419187
 H        -1.884219         1.483851         1.992468
 H        -1.727144        -0.149886         1.985486
 H         0.703491         3.043260         0.621787
 H         0.835406         2.968268         2.392677
 H         3.132017         1.901206         1.077326
 H        -0.310378        -1.704075         0.969060
 H        -0.365075        -0.916130        -0.513768
 H         0.977142        -2.188862        -0.121378
 H         1.743142        -0.403984         3.914959
