19
Iteration:  3038charge 0 multiplicity 1
 C        -1.237442         0.716913         2.213462
 C         0.231497         0.991444         1.822109
 C         0.992215         2.244589         1.505071
 C         2.177867         1.359565         1.237997
 O         1.836085         0.678091        -0.034552
 C         1.039200        -0.139834         0.746867
 C         0.163483        -1.107593         0.127067
 C         1.511362         0.246930         2.033979
 O         2.115464        -0.394387         3.126400
 H        -1.804239         1.463258         2.884388
 H        -1.897666         0.461563         1.316509
 H        -1.245720        -0.235546         2.782620
 H         0.676677         2.803872         0.485366
 H         1.052398         3.046026         2.320693
 H         3.205974         1.721705         1.347297
 H        -0.550947        -1.521834         0.953354
 H        -0.437210        -0.535352        -0.720900
 H         0.721493        -1.979931        -0.320611
 H         3.077997        -0.267439         2.961992
