19
Iteration:  1043
 C        -0.971210         0.661175         2.530500
 C         0.207429         0.960701         1.736431
 C         0.957133         2.362933         1.570903
 C         2.217202         1.438726         1.233675
 O         1.936775         0.811756        -0.046305
 C         0.883905         0.041357         0.665806
 C         0.295691        -1.225466         0.081667
 C         1.490640         0.259306         1.957025
 O         1.873041        -0.644366         2.943005
 H        -0.869452         0.990462         3.569865
 H        -1.783629         1.135288         1.993272
 H        -1.240854        -0.412058         2.580428
 H         0.494760         3.009491         0.745879
 H         0.882182         3.093406         2.373013
 H         3.246978         1.778538         1.373799
 H        -0.099630        -1.951000         0.768378
 H        -0.550632        -0.906186        -0.632500
 H         1.148855        -1.800683        -0.515096
 H         1.405671        -0.359581         3.785359
