19
Iteration:  1649charge 0 multiplicity 1
 C        -1.166231         0.746105         2.235981
 C         0.254983         0.933489         1.688336
 C         0.842921         2.285423         1.478413
 C         2.124534         1.503065         1.275892
 O         1.901836         0.713897        -0.013575
 C         0.900384        -0.111981         0.772158
 C         0.264754        -1.267126         0.108463
 C         1.572128         0.244994         2.051994
 O         2.146067        -0.444213         3.064857
 H        -1.277660         0.794804         3.337082
 H        -1.874883         1.565667         1.968760
 H        -1.521776        -0.272862         1.962170
 H         0.575232         2.971602         0.587900
 H         0.787481         2.728286         2.440511
 H         3.207121         1.871907         1.294972
 H        -0.085214        -1.940227         0.986286
 H        -0.603003        -0.954221        -0.549779
 H         1.028170        -1.815831        -0.446955
 H         2.043235        -0.031873         3.971154
