19
Iteration:   135charge 0 multiplicity 1
 C        -1.207561         0.702678         2.136076
 C         0.268628         0.990686         1.932800
 C         0.898306         2.241251         1.464179
 C         2.171780         1.445648         1.033548
 O         1.785193         0.695062        -0.157747
 C         1.005509        -0.096058         0.828167
 C         0.253134        -1.107461         0.160985
 C         1.533295         0.206492         2.149029
 O         2.192469        -0.489324         3.208716
 H        -1.710948         1.300958         2.881108
 H        -1.606388         0.734950         1.177545
 H        -1.293222        -0.353142         2.547064
 H         0.427435         2.733368         0.595599
 H         0.975473         3.092346         2.186837
 H         3.146374         2.010992         1.051866
 H        -0.716054        -1.466570         0.699142
 H        -0.041846        -0.691571        -0.704214
 H         0.838988        -1.996817         0.031526
 H         1.829327        -0.019297         3.975862
