19
Iteration:  1317charge 0 multiplicity 1
 C        -1.154402         0.639976         2.230805
 C         0.268872         0.985779         1.825200
 C         0.884608         2.342360         1.548360
 C         2.199395         1.446061         1.236988
 O         1.851525         0.760403        -0.013923
 C         0.915791        -0.068646         0.721230
 C         0.163561        -1.083086         0.052424
 C         1.555417         0.214101         2.066514
 O         2.121663        -0.609150         3.063861
 H        -1.141793        -0.100082         3.113925
 H        -1.639183         1.604655         2.437190
 H        -1.765101         0.229074         1.392049
 H         0.463200         2.911959         0.631421
 H         1.370010         2.691305         2.449993
 H         3.254742         1.807769         1.315733
 H        -0.667596        -1.389098         0.593348
 H        -0.137288        -0.696680        -0.976063
 H         0.912575        -1.928267        -0.046419
 H         2.341233        -0.032419         3.824745
