19
Iteration:  3498
 C        -1.097170         0.680122         2.353041
 C         0.268687         1.014983         1.890211
 C         0.913482         2.302650         1.473609
 C         2.172212         1.416253         1.167611
 O         1.831635         0.733875        -0.135903
 C         1.002433        -0.092511         0.728267
 C         0.293006        -1.215569        -0.030089
 C         1.555159         0.288768         2.067737
 O         2.009493        -0.475025         3.175510
 H        -1.489145         1.394914         3.148227
 H        -1.753381         0.452421         1.531430
 H        -1.039851        -0.241474         2.885607
 H         0.263299         2.774793         0.658144
 H         1.100185         3.080801         2.383258
 H         3.206040         1.825491         1.338093
 H        -0.328344        -1.728074         0.653482
 H        -0.454334        -0.855356        -0.763449
 H         0.996519        -1.946198        -0.400374
 H         1.314279        -0.391722         3.836476
