19
Iteration:  4519
 C        -1.180952         0.730776         2.407292
 C         0.159996         0.947065         1.670408
 C         0.817936         2.326140         1.544899
 C         2.210702         1.490474         1.158100
 O         1.826911         0.812838        -0.104382
 C         0.892285         0.044093         0.713875
 C         0.477504        -1.314817         0.226415
 C         1.577166         0.243345         1.995127
 O         1.978655        -0.602592         3.028940
 H        -1.079791         1.108502         3.457316
 H        -2.052992         1.367531         1.880981
 H        -1.489000        -0.315196         2.496843
 H         0.598571         2.937362         0.594134
 H         1.120139         2.918308         2.420360
 H         3.317183         1.632185         1.243796
 H        -0.338588        -1.405984        -0.506743
 H         1.319615        -1.859354        -0.089397
 H         0.139123        -1.798736         1.178580
 H         2.670713        -0.310007         3.637996
