19
Iteration:  4227charge 0 multiplicity 1
 C        -1.322162         0.709289         2.307774
 C         0.169073         0.891350         1.813798
 C         0.918222         2.368619         1.328092
 C         2.180890         1.457753         1.232929
 O         1.917254         0.753877         0.000835
 C         0.955508        -0.076913         0.831166
 C         0.218959        -1.174932         0.193704
 C         1.629331         0.272642         2.046244
 O         2.223744        -0.580913         2.962819
 H        -1.556509         1.498798         3.098352
 H        -2.154472         0.892532         1.616255
 H        -1.406355        -0.338800         2.804943
 H         0.633763         3.159877         0.596272
 H         0.757319         2.917569         2.357727
 H         3.247462         1.814466         1.305707
 H        -0.646967        -1.658753         0.661734
 H        -0.209751        -0.946138        -0.813430
 H         0.724656        -2.027815        -0.181801
 H         1.932022        -0.215721         3.799575
