19
Iteration:  2759
 C        -1.015780         0.667244         2.544896
 C         0.167848         0.987575         1.582506
 C         1.058608         2.352515         1.455874
 C         2.189885         1.350056         1.182240
 O         1.823151         0.795278        -0.073884
 C         0.915696        -0.005600         0.689751
 C         0.381831        -1.266875         0.144583
 C         1.433651         0.315353         1.983030
 O         1.872657        -0.476025         3.157311
 H        -1.591387         1.563155         2.560241
 H        -1.655662        -0.267935         2.257978
 H        -0.777787         0.470574         3.650623
 H         0.833242         3.106673         0.624561
 H         1.129228         2.949267         2.433256
 H         3.223095         1.592001         1.257348
 H        -0.322048        -2.022778         0.706671
 H        -0.294293        -0.898829        -0.712126
 H         1.272113        -1.731346        -0.406802
 H         2.020319        -1.420403         3.007998
