19
Iteration:   405charge 0 multiplicity 1
 C        -1.094755         0.658161         2.422952
 C         0.213865         1.020767         1.818694
 C         0.941570         2.338237         1.471368
 C         2.208663         1.473643         1.136455
 O         1.831618         0.713005        -0.088648
 C         0.984166        -0.119860         0.704406
 C         0.317696        -1.270099         0.065051
 C         1.596517         0.204065         1.954575
 O         1.882716        -0.437015         3.182212
 H        -1.685358         1.429325         2.804241
 H        -1.635999         0.119379         1.629027
 H        -0.928599        -0.068588         3.254459
 H         0.551764         3.044027         0.705446
 H         1.032912         2.901385         2.467554
 H         3.193588         2.031162         1.279503
 H        -0.506879        -1.858935         0.605920
 H        -0.117157        -0.832726        -0.812485
 H         1.035706        -1.916426        -0.288837
 H         2.174006         0.314758         3.685758
