19
Iteration:  1045
 C        -0.977898         0.657688         2.535614
 C         0.206161         0.949336         1.718999
 C         0.944352         2.377317         1.587564
 C         2.214519         1.428595         1.216053
 O         1.943608         0.808215        -0.043960
 C         0.865172         0.045353         0.669701
 C         0.292770        -1.225840         0.071753
 C         1.507339         0.259751         1.963300
 O         1.879490        -0.633970         2.942930
 H        -0.919138         1.048082         3.572776
 H        -1.769615         1.103229         1.971557
 H        -1.230873        -0.386403         2.589298
 H         0.584080         2.956469         0.767108
 H         0.877247         3.077876         2.390233
 H         3.290112         1.717949         1.426717
 H        -0.063358        -1.903460         0.757563
 H        -0.515517        -0.934015        -0.652310
 H         1.085863        -1.748393        -0.435267
 H         1.422739        -0.384657         3.773893
