19
Iteration:  2329
 C        -1.044253         0.763463         2.423700
 C         0.233442         0.991099         1.751963
 C         0.948188         2.308639         1.429809
 C         2.230472         1.478603         1.183751
 O         1.767109         0.760509        -0.110528
 C         0.939172        -0.003866         0.745770
 C         0.384335        -1.338999         0.101073
 C         1.588275         0.364940         2.089689
 O         1.865644        -0.614171         3.077061
 H        -0.980458         0.694707         3.537914
 H        -1.786334         1.562240         2.232190
 H        -1.391553        -0.236826         2.127796
 H         0.507294         2.803780         0.554341
 H         1.142938         2.950734         2.317549
 H         3.195369         1.825423         0.984201
 H         0.321792        -2.034497         0.955093
 H        -0.596083        -1.151002        -0.546633
 H         1.055064        -1.934419        -0.634479
 H         1.607399        -0.344607         4.004751
