19
Iteration:  2791charge 0 multiplicity 1
 C        -1.071005         0.736954         2.446919
 C         0.243370         0.929491         1.805615
 C         0.901027         2.286740         1.496847
 C         2.207763         1.458566         1.104825
 O         1.918037         0.693121        -0.043494
 C         0.921219         0.008331         0.621365
 C         0.254901        -1.230162         0.065199
 C         1.566786         0.237563         2.047435
 O         1.884613        -0.461351         3.161433
 H        -1.413323         1.728825         2.676430
 H        -1.883880         0.498043         1.666340
 H        -1.048354         0.084711         3.370313
 H         0.382429         2.826278         0.675936
 H         0.969077         2.844252         2.474349
 H         3.301574         1.818638         1.088252
 H        -0.338073        -1.830361         0.857506
 H        -0.438791        -1.012096        -0.797912
 H         1.041771        -1.866691        -0.437474
 H         2.851554        -0.686875         3.194711
