19
Iteration:  2958
 C        -1.050467         0.706048         2.491249
 C         0.228049         1.086953         1.698992
 C         0.979903         2.347600         1.444016
 C         2.202125         1.478116         1.205093
 O         1.903012         0.661130        -0.049715
 C         0.829384        -0.007920         0.636477
 C         0.388540        -1.307241         0.141348
 C         1.480600         0.224978         1.991484
 O         1.870032        -0.430018         3.098793
 H        -1.094942         1.348451         3.453639
 H        -2.008488         0.897170         2.018418
 H        -1.034567        -0.403021         2.768022
 H         0.451405         3.071035         0.745365
 H         1.093026         2.851761         2.412172
 H         3.163406         1.838880         1.338122
 H        -0.199441        -1.833765         0.881094
 H        -0.340338        -1.262587        -0.772949
 H         1.272759        -1.948313        -0.156358
 H         2.185104        -1.348543         2.930253
