19
Iteration:  1095
 C        -1.145548         0.741940         2.262886
 C         0.282501         0.933514         1.940537
 C         0.970712         2.298369         1.605894
 C         2.227688         1.410572         1.206411
 O         1.698044         0.797988        -0.046926
 C         0.954423        -0.028298         0.736736
 C         0.193629        -1.139460        -0.069305
 C         1.698057         0.244966         2.026187
 O         2.060314        -0.648861         3.049684
 H        -1.440753         1.717670         2.688418
 H        -1.851921         0.471298         1.409429
 H        -1.251743        -0.026935         3.103142
 H         0.290318         3.094218         1.037786
 H         1.110333         2.737885         2.634454
 H         3.179001         1.837583         1.159397
 H        -0.614951        -1.655927         0.539487
 H        -0.105430        -0.693388        -1.027488
 H         0.883578        -2.082485        -0.269478
 H         2.053037        -0.089919         3.878113
