19
Iteration:  1921charge 0 multiplicity 1
 C        -1.130527         0.699940         2.432721
 C         0.171835         0.951914         1.726158
 C         0.921673         2.233286         1.485735
 C         2.197379         1.468162         1.208471
 O         1.946591         0.826606        -0.119796
 C         0.977019        -0.031077         0.694197
 C         0.313152        -1.223875         0.121624
 C         1.485160         0.200835         2.044753
 O         1.996602        -0.524829         3.056128
 H        -1.585144         1.720070         2.574865
 H        -1.787045         0.054751         1.921628
 H        -1.033440         0.263421         3.401563
 H         0.417488         2.865574         0.687124
 H         0.989963         2.864975         2.378296
 H         3.186121         1.702617         1.361322
 H        -0.173710        -1.729894         0.966524
 H        -0.558638        -0.926243        -0.600896
 H         0.911746        -1.917732        -0.434922
 H         1.878787        -0.075229         3.900760
