19
Iteration:  3807charge 0 multiplicity 1
 C        -1.208411         0.831769         2.156760
 C         0.181743         0.955624         1.775520
 C         0.955940         2.359775         1.575873
 C         2.172476         1.565222         1.124996
 O         1.778894         0.851819        -0.044824
 C         0.948066        -0.086735         0.788499
 C         0.360862        -1.407904         0.257354
 C         1.624909         0.256793         2.050222
 O         2.094827        -0.668320         2.993970
 H        -1.473411         0.972904         3.258919
 H        -1.883691         1.603579         1.739810
 H        -1.711566        -0.081226         2.028835
 H         0.412452         2.927552         0.885943
 H         1.086939         2.876862         2.553128
 H         3.202866         1.943507         0.991845
 H         0.038914        -2.080715         1.150174
 H        -0.540850        -1.200522        -0.281472
 H         0.950040        -2.049003        -0.441705
 H         2.076843        -0.302731         3.881918
