19
Iteration:  1992
 C        -1.128650         0.784974         2.486150
 C         0.234296         0.965594         1.822479
 C         0.989426         2.308333         1.525672
 C         2.200789         1.447489         1.210051
 O         1.809364         0.858646        -0.097976
 C         0.919745        -0.026065         0.677354
 C         0.455564        -1.369577         0.156145
 C         1.490993         0.255066         1.949758
 O         1.853817        -0.610590         2.961875
 H        -1.890766         1.276473         1.953852
 H        -1.197195        -0.336407         2.664585
 H        -1.157933         1.168204         3.542186
 H         0.739082         3.040157         0.763158
 H         1.070140         2.951922         2.449729
 H         3.295497         1.954196         1.227018
 H        -0.206939        -2.123073         0.736169
 H         0.060786        -1.110344        -0.757764
 H         1.382037        -1.873162        -0.395307
 H         1.897490        -0.066879         3.764551
