19
Iteration:   193charge 0 multiplicity 1
 C        -1.141958         0.708282         2.414957
 C         0.176000         0.908007         1.706662
 C         0.905342         2.328003         1.501267
 C         2.198213         1.372742         1.135568
 O         1.927337         0.639228        -0.074704
 C         0.971483        -0.057119         0.668355
 C         0.285068        -1.243402         0.079116
 C         1.474446         0.310919         2.044035
 O         2.106187        -0.347056         3.149497
 H        -1.340557         1.628362         3.096441
 H        -2.069759         0.810133         1.746360
 H        -1.226005        -0.268024         2.890207
 H         0.557517         3.159334         0.750823
 H         1.136639         2.669603         2.544131
 H         3.117606         1.765374         1.405555
 H        -0.345512        -1.443843         0.869679
 H        -0.365583        -1.068763        -0.844509
 H         0.887134        -2.160969        -0.202799
 H         1.260314        -0.453010         3.653175
