19
Iteration:  2850
 C        -1.176748         0.690205         2.230646
 C         0.249464         1.038842         1.811789
 C         0.948921         2.252995         1.452316
 C         2.175130         1.361223         1.253765
 O         1.892742         0.680932        -0.059525
 C         0.866716         0.045777         0.752823
 C         0.146902        -1.230287         0.145251
 C         1.505984         0.268094         2.036308
 O         2.180930        -0.370803         3.170877
 H        -1.499429         0.686749         3.325429
 H        -1.886748         1.168156         1.611632
 H        -1.336973        -0.314272         1.856396
 H         0.644036         2.986774         0.626071
 H         1.104110         2.896722         2.324226
 H         3.113661         1.542040         1.331920
 H        -0.455167        -1.887679         0.757978
 H        -0.415736        -0.822215        -0.795519
 H         1.001872        -1.844338        -0.263436
 H         2.518816        -1.243437         2.969961
