19
Iteration:   788charge 0 multiplicity 1
 C        -1.159396         0.774872         2.405762
 C         0.199492         0.946550         1.833131
 C         0.924426         2.336673         1.536479
 C         2.118216         1.428948         1.187970
 O         1.902850         0.694070        -0.048157
 C         0.957240        -0.032009         0.664925
 C         0.368690        -1.208485         0.113702
 C         1.498186         0.226379         1.968550
 O         2.057334        -0.550501         3.003654
 H        -1.757831         1.706112         2.218973
 H        -1.690292        -0.042749         1.831391
 H        -1.235882         0.456848         3.492933
 H         0.528596         3.040396         0.795775
 H         1.214384         2.960308         2.416860
 H         3.038274         1.950277         1.127838
 H        -0.158606        -1.764240         1.032244
 H        -0.449482        -0.980624        -0.581172
 H         1.043996        -1.940702        -0.260786
 H         1.786891        -0.122365         3.815407
