19
Iteration:  3747
 C        -1.060125         0.714405         2.474565
 C         0.216552         0.981732         1.682548
 C         0.954875         2.316592         1.473768
 C         2.139599         1.486162         1.246977
 O         1.869612         0.766582        -0.087715
 C         0.933867        -0.079698         0.674701
 C         0.341611        -1.291450         0.084197
 C         1.453876         0.288422         2.047767
 O         1.975573        -0.555540         3.039664
 H        -1.272365         1.549344         3.145307
 H        -1.805440         0.389398         1.769235
 H        -0.833162        -0.220539         3.096178
 H         0.621837         3.062288         0.567419
 H         0.996763         2.889326         2.416061
 H         3.144243         1.846028         1.439917
 H        -0.326429        -1.702241         0.796171
 H        -0.303661        -0.859263        -0.741057
 H         1.145221        -1.994058        -0.123622
 H         1.903783        -0.091656         3.889934
