19
Iteration:  4576
 C        -1.072888         0.663470         2.455825
 C         0.179591         0.965930         1.760265
 C         0.875833         2.268477         1.464695
 C         2.134297         1.500924         1.116270
 O         1.832569         0.702753        -0.136335
 C         0.900095        -0.015813         0.721821
 C         0.402454        -1.188855         0.128426
 C         1.524590         0.280128         2.074995
 O         2.092127        -0.492869         3.099406
 H        -1.187693         1.033822         3.525802
 H        -1.978379         1.083443         1.917606
 H        -1.381727        -0.471382         2.475850
 H         0.574160         3.032388         0.689003
 H         1.124426         2.943498         2.434766
 H         3.149854         1.803253         1.288978
 H         0.443568        -0.975133        -0.947030
 H         0.967103        -2.194519         0.332198
 H        -0.622527        -1.312088         0.225631
 H         1.352292        -0.748540         3.686097
