19
Iteration:  2498charge 0 multiplicity 1
 C        -1.217344         0.764029         2.354227
 C         0.194486         1.039360         1.794060
 C         0.994171         2.353813         1.566985
 C         2.132474         1.401041         1.208921
 O         1.887317         0.703461        -0.036106
 C         0.888805        -0.075683         0.733287
 C         0.295941        -1.299435         0.038941
 C         1.491276         0.287196         2.012746
 O         2.144801        -0.519708         2.989318
 H        -1.785373         1.681650         2.435871
 H        -1.856861         0.013864         1.756387
 H        -1.176305         0.279585         3.368853
 H         0.736667         3.127043         0.851449
 H         1.299372         2.838230         2.500568
 H         3.282242         1.689599         1.193746
 H        -0.492061        -1.687002         0.788857
 H        -0.226227        -0.996032        -0.871063
 H         1.071540        -2.079304         0.033376
 H         1.839089        -0.211160         3.883793
