19
Iteration:  1337
 C        -1.230637         0.733819         2.314880
 C         0.164485         0.985592         1.699334
 C         0.973659         2.303059         1.614408
 C         2.163702         1.386024         1.293088
 O         1.934756         0.773285        -0.069613
 C         0.883161         0.022802         0.714415
 C         0.257116        -1.189973         0.113068
 C         1.543383         0.265037         2.058505
 O         2.128132        -0.596118         2.966970
 H        -1.126366        -0.222037         2.867872
 H        -1.537964         1.558118         2.994682
 H        -1.990896         0.459917         1.524347
 H         0.838738         2.971611         0.717956
 H         0.848231         2.627804         2.691015
 H         3.107885         1.776088         1.113788
 H        -0.512349        -1.598012         0.743298
 H        -0.104391        -0.940429        -0.890400
 H         0.970541        -2.146741         0.027560
 H         2.007415        -0.154748         3.864225
