19
Iteration:  2977
 C        -1.117865         0.693734         2.461297
 C         0.168411         0.900723         1.713550
 C         0.986337         2.314404         1.447171
 C         2.238004         1.373568         1.150467
 O         1.871035         0.815361        -0.092504
 C         0.927846        -0.053638         0.678785
 C         0.274005        -1.277211         0.124515
 C         1.566477         0.317168         2.046220
 O         1.937730        -0.392562         3.177692
 H        -1.333417         1.441979         3.185942
 H        -1.905169         0.710703         1.715988
 H        -1.088129        -0.244794         3.052738
 H         0.831848         2.763457         0.551712
 H         1.081775         2.866417         2.324889
 H         3.351569         1.766325         1.339452
 H        -0.421293        -1.710956         0.780410
 H        -0.262987        -1.040420        -0.709315
 H         1.040438        -1.964592        -0.190424
 H         1.804055        -1.324124         2.834162
