19
Iteration:  3916charge 0 multiplicity 1
 C        -1.096444         0.667862         2.487397
 C         0.234671         0.918897         1.694658
 C         0.947622         2.325579         1.569563
 C         2.239434         1.480200         1.166835
 O         1.791110         0.745259        -0.041845
 C         0.960072        -0.073246         0.681917
 C         0.292435        -1.277129         0.048674
 C         1.625431         0.226407         1.924254
 O         1.924056        -0.444639         3.121438
 H        -0.799202         0.999216         3.497435
 H        -1.731348         1.356806         1.979888
 H        -1.354503        -0.302556         2.336251
 H         0.686956         3.119924         0.737817
 H         0.619835         2.889200         2.499074
 H         3.161434         1.955637         0.813347
 H        -0.432414        -1.771419         0.744587
 H        -0.108393        -1.087446        -0.882785
 H         1.201241        -1.914588        -0.020619
 H         1.434160        -0.039294         3.849777
