19
Iteration:  2208charge 0 multiplicity 1
 C        -1.162683         0.734941         2.432919
 C         0.172558         0.897426         1.680829
 C         1.008435         2.309947         1.522838
 C         2.205365         1.414957         1.233899
 O         1.831357         0.787435        -0.080097
 C         0.916260        -0.030021         0.660752
 C         0.305429        -1.268837         0.154022
 C         1.517699         0.357492         2.086016
 O         2.043739        -0.551238         2.952624
 H        -1.700022         1.771032         2.544152
 H        -1.736271         0.075856         1.783507
 H        -1.123502         0.371159         3.462511
 H         0.787870         3.009909         0.695399
 H         1.005653         2.593077         2.578938
 H         3.242167         1.838150         1.479088
 H        -0.278283        -1.727186         0.899133
 H        -0.146350        -1.039543        -0.849355
 H         1.011622        -2.147232         0.026301
 H         1.938015        -0.272764         3.862838
