19
Iteration:  3888charge 0 multiplicity 1
 C        -1.102730         0.687833         2.351957
 C         0.213562         0.912983         1.799697
 C         0.918106         2.222466         1.446974
 C         2.151052         1.420756         1.076781
 O         1.852108         0.831283        -0.085596
 C         0.963016        -0.043141         0.760190
 C         0.281913        -1.209031         0.149018
 C         1.513611         0.284689         2.063398
 O         2.069904        -0.534596         3.125452
 H        -1.056296         0.743862         3.439907
 H        -1.697317         1.644480         1.992657
 H        -1.713461        -0.140930         1.732224
 H         0.481086         2.880495         0.754393
 H         0.986503         2.840323         2.328710
 H         3.139609         1.904664         1.084816
 H        -0.370959        -1.828686         0.744654
 H        -0.277604        -0.793425        -0.781635
 H         1.189433        -1.857363        -0.001512
 H         1.867502        -0.220633         4.000983
