19
Iteration:    88
 C        -1.163197         0.785736         2.441272
 C         0.147126         1.009549         1.658461
 C         0.934758         2.290306         1.393923
 C         2.144738         1.469170         1.306274
 O         1.920024         0.705425        -0.089751
 C         0.965479         0.034796         0.640150
 C         0.401542        -1.334735         0.274553
 C         1.477637         0.221577         2.008230
 O         1.984200        -0.530207         3.001716
 H        -1.043230         1.143532         3.418460
 H        -2.043245         1.137072         1.959919
 H        -1.267828        -0.255581         2.576471
 H         0.747656         2.845620         0.516965
 H         0.935592         3.007763         2.187956
 H         3.179908         1.854286         1.405081
 H         0.014902        -1.808411         1.131082
 H        -0.453679        -1.317480        -0.398729
 H         1.134499        -2.035678        -0.112838
 H         1.989112         0.148414         3.749008
