19
Iteration:   293charge 0 multiplicity 1
 C        -1.181431         0.824397         2.274276
 C         0.198281         0.988472         1.631402
 C         0.930375         2.304827         1.472187
 C         2.118147         1.394162         1.206101
 O         1.860444         0.764169        -0.062614
 C         0.905967        -0.032225         0.725515
 C         0.367157        -1.333567         0.300619
 C         1.525178         0.275117         2.045226
 O         2.031590        -0.505369         3.089939
 H        -1.048163         0.701030         3.379169
 H        -2.074969         1.310599         1.850480
 H        -1.472234        -0.165481         2.003626
 H         0.842422         3.012734         0.563419
 H         1.058161         2.696184         2.491875
 H         3.003641         1.882885         1.342961
 H         0.020691        -1.780388         1.148776
 H        -0.585173        -1.202216        -0.324606
 H         1.134761        -2.010292        -0.060271
 H         3.037218        -0.394275         3.011563
