19
Iteration:  4023
 C        -1.231251         0.743378         2.213411
 C         0.233980         0.922240         1.810066
 C         0.933759         2.240986         1.578908
 C         2.269080         1.449562         1.219102
 O         1.866655         0.798565        -0.069111
 C         0.896654         0.022548         0.783630
 C         0.219679        -1.301154         0.243346
 C         1.554793         0.364986         2.039777
 O         2.148464        -0.561194         2.928834
 H        -1.743313         1.600375         2.821155
 H        -1.807522         0.727031         1.190714
 H        -1.462839        -0.266046         2.791672
 H         0.498120         2.740819         0.709593
 H         1.057153         2.772960         2.444458
 H         3.344043         1.819381         1.301954
 H        -0.371415        -1.879130         1.033505
 H        -0.575496        -1.060894        -0.550013
 H         0.763518        -2.076417        -0.285683
 H         2.105150        -0.241717         3.834626
