19
Iteration:  2670
 C        -1.269518         0.818474         2.207221
 C         0.232575         0.985191         1.864085
 C         0.961073         2.318344         1.616135
 C         2.182934         1.387486         1.281980
 O         1.881778         0.686035         0.018123
 C         0.895591        -0.047132         0.711917
 C         0.149767        -1.228538         0.045481
 C         1.488366         0.264979         2.079601
 O         2.327246        -0.526491         2.932693
 H        -1.767045         0.346842         1.381121
 H        -1.408906        -0.029518         2.990018
 H        -1.790484         1.753037         2.512932
 H         0.503414         2.834933         0.724367
 H         1.230844         3.084195         2.438899
 H         3.214224         1.698296         1.474316
 H        -0.716871        -1.441225         0.789349
 H        -0.430441        -1.046735        -0.898795
 H         0.903311        -1.958633        -0.333183
 H         1.802544        -0.539831         3.741983
