19
Iteration:   329
 C        -1.236620         0.801326         2.151748
 C         0.221730         0.982248         1.971025
 C         0.871110         2.292157         1.481536
 C         2.108707         1.460388         1.128716
 O         1.824759         0.675577        -0.058949
 C         0.987099        -0.116850         0.794464
 C         0.295944        -1.252435         0.176083
 C         1.633945         0.267788         2.078585
 O         2.163363        -0.429108         3.112767
 H        -1.727343         1.221157         2.978323
 H        -1.782643         1.244641         1.293066
 H        -1.289147        -0.319375         2.190701
 H         0.430461         2.824493         0.621455
 H         0.981113         3.155889         2.201723
 H         3.151131         2.004747         1.156526
 H        -0.472524        -1.699987         0.885062
 H        -0.186006        -0.913368        -0.686408
 H         0.919884        -1.992139        -0.200896
 H         2.148817        -1.439695         3.035600
