19
Iteration:   381
 C        -1.139458         0.642447         2.302711
 C         0.127161         0.898037         1.676246
 C         0.932494         2.260745         1.463362
 C         2.229166         1.343435         1.209800
 O         1.870478         0.724272        -0.014964
 C         0.881541        -0.040969         0.668307
 C         0.230932        -1.202141         0.063698
 C         1.543486         0.302279         2.109468
 O         2.156626        -0.362077         3.132136
 H        -1.353595         1.668511         2.738282
 H        -1.981443         0.242155         1.678823
 H        -0.973045         0.065525         3.203021
 H         0.606016         3.059926         0.706403
 H         0.939143         2.700534         2.494693
 H         3.093517         1.905072         1.438681
 H        -0.573456        -1.619203         0.683208
 H        -0.219102        -1.006709        -1.014993
 H         1.036495        -1.970443        -0.074694
 H         1.893149        -0.045877         4.054631
