19
Iteration:  2818
 C        -1.177065         0.763060         2.293438
 C         0.228009         0.898869         1.760932
 C         0.916255         2.229728         1.444221
 C         2.203872         1.490175         1.117360
 O         1.808700         0.737669        -0.076912
 C         1.051925        -0.119707         0.736925
 C         0.169936        -1.167295         0.104178
 C         1.687844         0.267574         2.132340
 O         2.005201        -0.464671         3.239919
 H        -1.456247         1.513351         3.101607
 H        -1.819390         0.973231         1.485023
 H        -1.345972        -0.240117         2.638718
 H         0.487531         2.907172         0.669827
 H         0.901293         2.675792         2.428969
 H         3.148294         1.892397         1.035405
 H        -0.521017        -1.682083         0.713627
 H        -0.355235        -0.550633        -0.663499
 H         0.721830        -1.918451        -0.472745
 H         2.808492        -1.044853         3.102012
