19
Iteration:   810charge 0 multiplicity 1
 C        -1.109953         0.747901         2.433518
 C         0.285132         0.986732         1.853613
 C         0.960718         2.311937         1.424898
 C         2.246246         1.527566         1.160152
 O         1.755538         0.826635        -0.147235
 C         0.964331        -0.059187         0.801386
 C         0.379978        -1.300776         0.027973
 C         1.596516         0.284298         2.079665
 O         1.898127        -0.640302         3.054622
 H        -1.873556         1.484409         2.077653
 H        -1.457647        -0.321555         2.355633
 H        -1.000187         0.905004         3.557589
 H         0.507691         2.936677         0.654463
 H         0.934808         2.988355         2.311208
 H         3.209421         1.951940         1.146899
 H        -0.078286        -2.069980         0.835356
 H        -0.449389        -1.064348        -0.655792
 H         1.127743        -1.975288        -0.330855
 H         1.306493        -0.555114         3.858681
