19
Iteration:  3051
 C        -1.160150         0.713534         2.242331
 C         0.186031         0.961587         1.726294
 C         0.956200         2.340821         1.490451
 C         2.157159         1.372312         1.278914
 O         1.914504         0.726333        -0.017946
 C         0.934206        -0.099735         0.710764
 C         0.147350        -1.202881         0.132105
 C         1.524046         0.170586         2.062676
 O         2.127993        -0.397461         3.122361
 H        -1.380228         1.557097         2.923678
 H        -1.897760         0.957549         1.355410
 H        -1.316323        -0.245446         2.731801
 H         0.488196         2.817325         0.456717
 H         1.001048         3.025785         2.457732
 H         3.355993         1.437429         1.318945
 H        -0.500399        -1.710819         0.934971
 H        -0.632819        -0.766961        -0.626262
 H         0.754288        -1.986583        -0.421151
 H         3.072019        -0.181237         3.191980
