19
Iteration:  1215
 C        -1.030886         0.781776         2.426650
 C         0.326234         1.019210         1.772652
 C         0.943484         2.336969         1.625372
 C         2.224874         1.456111         1.167843
 O         1.769035         0.819902        -0.104678
 C         0.885684         0.040940         0.634560
 C         0.416026        -1.267057         0.080989
 C         1.542333         0.201541         1.990124
 O         1.816890        -0.716877         3.057503
 H        -0.987400         1.001982         3.514003
 H        -1.791394         1.524432         2.044110
 H        -1.279705        -0.324303         2.321257
 H         0.567907         2.996920         0.810135
 H         0.992497         2.776506         2.696543
 H         3.119127         2.028990         1.134443
 H         0.493470        -2.030921         0.877203
 H        -0.368976        -1.263287        -0.606805
 H         1.299712        -1.553473        -0.604373
 H         1.438443        -0.400634         3.892272
