19
Iteration:  4653
 C        -1.137676         0.608731         2.242977
 C         0.285526         0.948999         1.909466
 C         0.908420         2.273392         1.501054
 C         2.194998         1.519688         1.175210
 O         1.789990         0.726537        -0.135707
 C         0.898614        -0.109702         0.776469
 C         0.130764        -1.202804         0.074176
 C         1.667097         0.290580         2.076648
 O         2.077728        -0.408915         3.203320
 H        -1.438965         1.313562         3.103368
 H        -1.961018         0.688807         1.452322
 H        -1.267432        -0.515391         2.621877
 H         0.572659         2.947811         0.663985
 H         1.080819         3.032434         2.410014
 H         3.122804         2.042701         0.924182
 H         0.526646        -1.042539        -0.926825
 H         0.599177        -2.259727         0.307870
 H        -0.891073        -1.265551         0.090726
 H         2.956953        -0.725205         2.920329
