19
Iteration:  1081charge 0 multiplicity 1
 C        -1.126921         0.730046         2.401117
 C         0.264356         0.952190         1.794603
 C         1.001916         2.308844         1.677566
 C         2.167497         1.461389         1.153572
 O         1.783746         0.841821        -0.086204
 C         0.926237        -0.099833         0.723330
 C         0.280280        -1.158674        -0.012376
 C         1.525942         0.165148         2.035028
 O         2.049666        -0.603628         3.030632
 H        -1.574575         1.592044         2.917489
 H        -1.820998         0.605664         1.537882
 H        -1.250944        -0.165599         3.021248
 H         0.857976         2.909171         0.834405
 H         1.254922         2.796738         2.615898
 H         3.261340         1.714480         1.161535
 H        -0.600551        -1.581973         0.547421
 H        -0.154737        -0.711167        -0.840862
 H         0.944110        -1.822120        -0.371260
 H         1.837462        -0.219693         3.898777
