19
Iteration:   387
 C        -1.118751         0.637649         2.334340
 C         0.193124         0.912235         1.680005
 C         0.931617         2.290835         1.508643
 C         2.173625         1.367960         1.210113
 O         1.871648         0.714950        -0.058222
 C         0.904229        -0.029495         0.679824
 C         0.259582        -1.229409         0.005457
 C         1.498817         0.317949         2.101814
 O         2.092988        -0.375307         3.158739
 H        -1.412094         1.644876         2.705829
 H        -1.897207         0.182056         1.743121
 H        -0.964456        -0.000848         3.233660
 H         0.613483         2.910738         0.692161
 H         1.060337         2.804024         2.452789
 H         3.270106         1.734016         1.217880
 H        -0.465771        -1.576187         0.750223
 H        -0.265347        -1.033280        -0.909952
 H         0.976088        -2.103355        -0.042923
 H         2.104153         0.034112         4.012625
