19
Iteration:  2584
 C        -1.102315         0.677178         2.524824
 C         0.136559         1.030235         1.754798
 C         1.023647         2.286671         1.488043
 C         2.302254         1.429375         1.177521
 O         1.913683         0.705426        -0.062657
 C         0.900955         0.034143         0.716266
 C         0.325782        -1.220711         0.160284
 C         1.510610         0.339373         1.985237
 O         1.874563        -0.580349         2.924161
 H        -1.857454         0.418524         1.810302
 H        -1.029864        -0.346075         3.042498
 H        -1.435741         1.493790         3.212016
 H         0.645701         3.076179         0.775208
 H         1.158704         2.727717         2.551666
 H         3.188698         1.918171         1.312013
 H         0.082553        -1.984883         1.038770
 H        -0.466341        -1.072740        -0.623189
 H         1.017095        -1.715182        -0.600035
 H         1.474281        -0.190063         3.712844
