19
Iteration:   891charge 0 multiplicity 1
 C        -1.082055         0.688021         2.352666
 C         0.218634         0.986459         1.765553
 C         0.923499         2.269590         1.507548
 C         2.140453         1.446809         1.213078
 O         1.809905         0.745000        -0.101913
 C         0.911570         0.071567         0.737017
 C         0.245873        -1.138690         0.099454
 C         1.588623         0.231239         2.097851
 O         2.076681        -0.613871         3.054427
 H        -1.602435        -0.067127         1.663629
 H        -1.155905         0.191836         3.366697
 H        -1.679556         1.656486         2.333870
 H         0.598223         2.826948         0.607692
 H         0.970727         2.794320         2.436775
 H         3.227028         1.737060         1.318157
 H        -0.448108        -1.684843         0.634656
 H        -0.291332        -0.911611        -0.863614
 H         1.073123        -1.884066        -0.232601
 H         2.322962        -0.176181         3.925027
