19
Iteration:  4442charge 0 multiplicity 1
 C        -1.194930         0.696111         2.172217
 C         0.307199         0.925494         1.781987
 C         0.876862         2.293167         1.574326
 C         2.184692         1.481142         1.155578
 O         1.713231         0.786786        -0.107672
 C         0.994985        -0.079246         0.729747
 C         0.222819        -1.238192         0.142417
 C         1.683419         0.261411         2.119532
 O         2.189021        -0.510670         3.151426
 H        -1.432936         1.498833         2.865647
 H        -1.828151         0.802390         1.251155
 H        -1.447282        -0.236205         2.591238
 H         0.407381         2.981369         0.753762
 H         0.816620         2.753888         2.554138
 H         3.234192         1.870431         1.039363
 H        -0.822713        -1.002437         0.343152
 H         0.308966        -1.218214        -0.852017
 H         0.512947        -2.252632         0.538180
 H         1.486407        -0.452801         3.817582
