19
Iteration:  1749
 C        -1.050054         0.718611         2.438236
 C         0.208910         0.930680         1.714517
 C         0.896522         2.310088         1.476257
 C         2.226622         1.507302         1.150674
 O         1.908674         0.761280        -0.110191
 C         0.898112        -0.005962         0.677833
 C         0.412235        -1.345355         0.192582
 C         1.549607         0.341723         2.022574
 O         1.848226        -0.571990         3.077612
 H        -0.975915         0.381960         3.443115
 H        -1.629313         1.666308         2.554380
 H        -1.677051        -0.069687         1.900282
 H         0.555989         2.954987         0.681312
 H         0.802083         2.867883         2.384513
 H         3.152820         2.046231         1.025710
 H        -0.186903        -1.821527         0.939798
 H        -0.180794        -1.390646        -0.664369
 H         1.390406        -1.871550         0.048577
 H         1.494059        -0.037669         3.837854
