19
Iteration:  1974charge 0 multiplicity 1
 C        -1.049619         0.784532         2.518481
 C         0.181337         0.985979         1.690434
 C         0.957051         2.307920         1.496039
 C         2.200796         1.446960         1.147824
 O         1.736039         0.794251        -0.071949
 C         0.850434         0.063393         0.748221
 C         0.572431        -1.275224         0.034177
 C         1.615337         0.241714         2.033459
 O         1.833617        -0.662125         3.041440
 H        -1.870207         1.599416         2.188896
 H        -1.551197        -0.215874         2.382134
 H        -0.925087         0.969223         3.597062
 H         0.496057         2.963432         0.735427
 H         1.088962         2.811512         2.457660
 H         3.190062         1.713313         0.938686
 H         0.196778        -1.795577         0.952605
 H        -0.142712        -1.390477        -0.875984
 H         1.405558        -1.852531        -0.144473
 H         1.615190        -0.338789         3.934415
