19
Iteration:    77charge 0 multiplicity 1
 C        -1.174699         0.783476         2.517332
 C         0.148637         0.984993         1.693492
 C         0.906502         2.385512         1.385043
 C         2.177425         1.359927         1.238065
 O         1.956463         0.733939        -0.041527
 C         0.887862        -0.016093         0.599837
 C         0.476220        -1.315965         0.285303
 C         1.486548         0.252232         1.901663
 O         1.911546        -0.527501         2.991369
 H        -1.022457         1.244937         3.434768
 H        -2.028901         1.293163         2.141132
 H        -1.427211        -0.231474         2.622843
 H         0.712137         2.824883         0.461022
 H         1.070738         2.985698         2.241738
 H         3.210801         1.725203         1.386627
 H         0.414120        -1.691758         1.275994
 H        -0.338885        -1.624338        -0.319850
 H         1.414882        -1.701938        -0.076242
 H         1.758387        -0.096150         3.881045
