19
Iteration:   305
 C        -1.200371         0.737508         2.184909
 C         0.147986         0.942149         1.691571
 C         0.950111         2.275006         1.412692
 C         2.210692         1.454507         1.178926
 O         1.804470         0.738843        -0.022696
 C         0.867143        -0.021743         0.787581
 C         0.306540        -1.288444         0.286147
 C         1.575286         0.331797         2.112055
 O         2.108903        -0.501241         3.118441
 H        -1.368963         1.009979         3.239991
 H        -1.809235         1.550154         1.718359
 H        -1.542950        -0.260459         2.009117
 H         0.579712         3.128240         0.743443
 H         0.999489         2.806986         2.393042
 H         3.231762         1.771689         1.144179
 H        -0.158520        -1.851843         1.023705
 H        -0.338409        -1.171268        -0.631360
 H         1.109082        -1.837560        -0.142084
 H         2.950573        -0.873015         2.839772
