19
Iteration:  2468
 C        -1.190071         0.732765         2.164506
 C         0.262986         0.904749         1.799080
 C         0.933901         2.219595         1.487199
 C         2.125901         1.441521         1.232442
 O         1.814233         0.795070        -0.072030
 C         0.869650        -0.058517         0.789881
 C         0.152584        -1.122670         0.165072
 C         1.639101         0.241709         2.085661
 O         2.237277        -0.541736         3.077637
 H        -1.713018         1.692239         2.385914
 H        -1.754552         0.402872         1.344825
 H        -1.248448         0.108417         3.019027
 H         0.659698         2.828818         0.607107
 H         1.098851         2.689078         2.462507
 H         3.279812         1.744190         1.050332
 H        -0.583714        -1.325701         0.823005
 H        -0.079580        -0.935650        -0.859593
 H         0.655108        -2.065812         0.169229
 H         1.900420        -0.261747         3.932933
