19
Iteration:   778
 C        -1.204968         0.754946         2.327474
 C         0.204353         0.985813         1.773810
 C         0.893630         2.263866         1.562087
 C         2.182250         1.481718         1.237513
 O         1.948765         0.676671        -0.100756
 C         0.890853        -0.004820         0.712034
 C         0.266247        -1.242119         0.104320
 C         1.530740         0.234296         2.050810
 O         2.102272        -0.504942         2.971589
 H        -1.666687         1.775198         2.463182
 H        -1.898990         0.008329         1.813237
 H        -1.055630         0.433555         3.432619
 H         0.492029         3.011155         0.864686
 H         1.015199         2.648557         2.578283
 H         3.152407         1.787152         1.448327
 H        -0.203653        -1.730630         1.044142
 H        -0.465266        -1.156098        -0.693394
 H         1.055253        -1.938186        -0.228807
 H         2.166160        -0.031941         3.825574
