19
Iteration:  2108
 C        -1.153122         0.767837         2.367224
 C         0.170385         0.963253         1.694162
 C         0.955417         2.271449         1.564364
 C         2.167295         1.422217         1.245719
 O         1.859462         0.808371        -0.042382
 C         0.923865        -0.038816         0.719887
 C         0.254794        -1.269199         0.083555
 C         1.617327         0.199715         1.999524
 O         2.073408        -0.537194         3.039315
 H        -1.992906         0.946358         1.555308
 H        -1.131926        -0.258706         2.696385
 H        -1.446773         1.330726         3.266519
 H         0.694826         3.151594         0.942966
 H         1.095573         2.751410         2.535196
 H         3.233731         1.678692         1.277562
 H        -0.219413        -1.881816         0.784593
 H        -0.644512        -0.961178        -0.541857
 H         0.932907        -1.775200        -0.585884
 H         1.885261         0.120367         3.730929
