19
Iteration:  3941
 C        -1.033665         0.671942         2.527911
 C         0.201420         1.023370         1.784340
 C         0.916083         2.278488         1.482229
 C         2.171047         1.359785         1.167332
 O         1.855822         0.730133        -0.152421
 C         0.947252        -0.012020         0.632728
 C         0.363197        -1.272312         0.025455
 C         1.490669         0.339460         2.014155
 O         1.898536        -0.487257         3.142082
 H        -0.748476         1.197140         3.433014
 H        -2.059481         0.885099         2.023179
 H        -0.681544        -0.421460         2.668263
 H         0.691544         3.174048         0.851934
 H         1.077659         2.798016         2.515775
 H         3.120049         1.857807         1.278809
 H        -0.375602        -1.719503         0.697467
 H        -0.101628        -1.001094        -1.008529
 H         1.289829        -1.956765        -0.173702
 H         1.597566        -0.122856         3.970976
