19
Iteration:  3006
 C        -1.107432         0.732433         2.233164
 C         0.298426         0.940685         1.748808
 C         0.893481         2.274386         1.557037
 C         2.185046         1.490371         1.101553
 O         1.838907         0.649539        -0.022518
 C         0.900894        -0.090516         0.733010
 C         0.167257        -1.128552         0.097937
 C         1.667645         0.225367         2.073533
 O         2.048277        -0.420207         3.251678
 H        -1.648823         1.573177         2.744924
 H        -1.833299         0.370073         1.412740
 H        -1.048281        -0.154367         2.879238
 H         0.517690         2.870767         0.555599
 H         0.935466         3.126428         2.394417
 H         3.176036         2.084805         1.047285
 H        -0.713386        -1.634391         0.672549
 H        -0.338795        -0.756838        -0.890489
 H         0.857391        -1.947891        -0.224427
 H         2.401507        -1.287214         2.925517
