19
Iteration:   202charge 0 multiplicity 1
 C        -1.158142         0.733988         2.461916
 C         0.198261         0.965784         1.798326
 C         0.943064         2.275330         1.461578
 C         2.194880         1.444821         1.174234
 O         1.938515         0.677151        -0.106572
 C         0.952894        -0.081888         0.666408
 C         0.314852        -1.270389         0.076752
 C         1.531619         0.256651         1.996869
 O         1.987534        -0.347627         3.127893
 H        -1.300787         1.416314         3.335901
 H        -1.905523         0.834921         1.716711
 H        -1.366310        -0.246711         2.926398
 H         0.598913         2.864126         0.585801
 H         0.976667         2.907888         2.379742
 H         3.207511         1.764160         1.041814
 H        -0.335009        -1.762083         0.832028
 H        -0.325985        -1.027672        -0.729647
 H         1.110191        -2.014756        -0.168730
 H         1.361253        -0.653543         3.811579
