19
Iteration:  3280
 C        -1.097104         0.671566         2.369366
 C         0.274148         0.979234         1.758612
 C         0.896708         2.326568         1.397896
 C         2.195348         1.481473         1.134190
 O         1.888977         0.733380        -0.020228
 C         0.929159        -0.040612         0.738850
 C         0.201154        -1.229784         0.021639
 C         1.596308         0.271234         2.075757
 O         2.051200        -0.506414         3.205562
 H        -1.335403         1.392576         3.183698
 H        -1.947402         0.948317         1.616352
 H        -1.149940        -0.337398         2.596341
 H         0.616286         2.864080         0.536369
 H         1.011624         2.735119         2.331829
 H         3.256863         1.836187         1.206006
 H        -0.131764        -1.760478         0.891074
 H        -0.741100        -0.909187        -0.528216
 H         0.831402        -1.870908        -0.626831
 H         1.168113        -0.800959         3.587086
