19
Iteration:  4683
 C        -1.103340         0.642023         2.356828
 C         0.236372         0.918634         1.712967
 C         0.889291         2.338788         1.472351
 C         2.176848         1.418792         1.249913
 O         1.813432         0.782756        -0.084637
 C         0.898716        -0.003030         0.712765
 C         0.279406        -1.247636         0.207656
 C         1.554304         0.277354         1.980591
 O         2.015378        -0.490798         3.087071
 H        -1.134950         1.253027         3.244467
 H        -1.957128         0.971766         1.787328
 H        -1.213397        -0.323369         2.676544
 H         0.724272         3.055043         0.678160
 H         1.001395         2.752671         2.396009
 H         3.167143         1.853299         1.202578
 H         0.429558        -1.298683        -0.881168
 H         0.874956        -2.088879         0.611006
 H        -0.762828        -1.362550         0.560369
 H         2.981541        -0.379186         3.077047
