19
Iteration:  2601
 C        -1.111721         0.676480         2.366815
 C         0.259358         1.015457         1.747016
 C         0.996290         2.370504         1.545600
 C         2.175363         1.434511         1.238824
 O         1.874183         0.795362        -0.084169
 C         0.908295        -0.038629         0.672089
 C         0.238177        -1.245546         0.123252
 C         1.528884         0.239116         2.051606
 O         1.969463        -0.590489         3.020916
 H        -1.938990         0.275021         1.699496
 H        -0.970005        -0.064995         3.140252
 H        -1.504433         1.560598         2.846954
 H         0.690970         2.929752         0.666042
 H         1.212081         3.001824         2.376447
 H         3.345594         1.566360         1.132326
 H        -0.094908        -1.706972         0.973073
 H        -0.647870        -1.011796        -0.475413
 H         0.930637        -1.804447        -0.477394
 H         2.100696        -0.204528         3.892014
