19
Iteration:  4313
 C        -1.135088         0.799418         2.327544
 C         0.208948         0.974849         1.742098
 C         0.934982         2.337217         1.538264
 C         2.182732         1.407176         1.248477
 O         1.884146         0.749060        -0.114277
 C         0.814497         0.024062         0.758364
 C         0.396422        -1.405754         0.226023
 C         1.587378         0.314322         2.003242
 O         1.967482        -0.565818         2.963907
 H        -1.037043         1.077016         3.463602
 H        -1.947982         1.338720         1.843786
 H        -1.340479        -0.347342         2.339600
 H         0.693650         2.970570         0.693264
 H         1.024795         2.979095         2.446055
 H         3.098295         2.057383         1.265019
 H         0.561985        -2.205686         1.017644
 H        -0.666156        -1.213723        -0.177135
 H         1.170095        -1.556248        -0.666768
 H         1.496810        -0.208431         3.754143
