19
Iteration:  3225charge 0 multiplicity 1
 C        -1.227723         0.701847         2.232440
 C         0.250413         0.980921         1.768149
 C         0.963192         2.310973         1.577988
 C         2.201729         1.450519         1.166697
 O         1.887987         0.678120        -0.076562
 C         0.846379        -0.086553         0.763552
 C         0.098426        -1.202896         0.006700
 C         1.633153         0.228057         2.088020
 O         2.143389        -0.359641         3.235574
 H        -1.581155         1.359177         3.108574
 H        -1.965924         0.624503         1.327218
 H        -1.302420        -0.175300         2.862085
 H         0.794684         2.938064         0.690905
 H         1.099454         2.984931         2.406410
 H         3.264491         1.799786         1.245947
 H        -0.695245        -1.775665         0.499748
 H        -0.214446        -0.984672        -1.076447
 H         0.837001        -2.069432        -0.004699
 H         2.637097        -1.141385         2.873971
