19
Iteration:   206charge 0 multiplicity 1
 C        -1.154665         0.739823         2.475428
 C         0.224535         0.984838         1.807537
 C         0.945732         2.248585         1.448639
 C         2.197583         1.460682         1.178174
 O         1.922716         0.697832        -0.100564
 C         0.943441        -0.087456         0.671841
 C         0.321094        -1.292547         0.099237
 C         1.545933         0.243435         1.992765
 O         1.962049        -0.358956         3.125339
 H        -1.294783         1.404523         3.377746
 H        -1.966939         0.935726         1.652178
 H        -1.264355        -0.268764         2.888512
 H         0.567404         2.822156         0.526172
 H         1.001016         3.008031         2.252333
 H         3.213474         1.816115         1.046964
 H        -0.272336        -1.873538         0.747903
 H        -0.330157        -0.974715        -0.826671
 H         1.158330        -1.947351        -0.215433
 H         1.313774        -0.667003         3.779760
