19
Iteration:   780charge 0 multiplicity 1
 C        -1.200820         0.758192         2.340561
 C         0.208161         0.979967         1.792687
 C         0.902673         2.280076         1.554694
 C         2.160525         1.472414         1.235004
 O         1.943875         0.672334        -0.097472
 C         0.901018        -0.005815         0.712119
 C         0.284224        -1.228984         0.105021
 C         1.522094         0.215445         2.035085
 O         2.090601        -0.506177         2.973263
 H        -1.643970         1.784722         2.438639
 H        -1.835370        -0.026487         1.844023
 H        -1.099615         0.440081         3.436486
 H         0.486139         3.053914         0.863689
 H         1.055465         2.702196         2.524495
 H         3.122444         1.855446         1.380940
 H        -0.111532        -1.661992         0.985485
 H        -0.461143        -1.141640        -0.660505
 H         1.080048        -2.017859        -0.239161
 H         2.085258        -0.064177         3.810173
