19
Iteration:  3404
 C        -1.134254         0.725730         2.234176
 C         0.262406         0.950618         1.792322
 C         0.915070         2.346529         1.447815
 C         2.143645         1.490144         1.209468
 O         1.816426         0.714691        -0.032387
 C         0.849496        -0.060519         0.802191
 C         0.321458        -1.208448         0.145520
 C         1.559413         0.278471         2.070936
 O         2.128890        -0.529291         3.104037
 H        -1.272711         1.156851         3.169183
 H        -1.761931         1.078701         1.391361
 H        -1.457134        -0.356109         2.403631
 H         0.569275         2.833199         0.582322
 H         0.935789         2.985437         2.237988
 H         3.122047         1.976625         1.181421
 H        -0.661191        -1.460857         0.686515
 H         0.040281        -0.819173        -0.809480
 H         1.163005        -1.934326         0.261608
 H         1.754911        -1.452064         3.037590
