19
Iteration:  2447charge 0 multiplicity 1
 C        -1.194531         0.735293         2.174261
 C         0.338900         0.919270         1.821116
 C         0.843777         2.313662         1.543361
 C         2.222294         1.575311         1.130460
 O         1.817253         0.704556        -0.078537
 C         0.977015        -0.083186         0.782763
 C         0.109605        -1.176009         0.177051
 C         1.620190         0.245331         2.060634
 O         2.178219        -0.625218         3.125900
 H        -1.640295         1.612969         2.748513
 H        -1.790582         0.758395         1.300042
 H        -1.375106        -0.176580         2.699267
 H         0.296081         2.833220         0.701144
 H         0.890020         2.905837         2.488205
 H         3.299721         1.986965         0.846171
 H        -0.708044        -1.449319         0.761991
 H        -0.120111        -0.699181        -0.801745
 H         0.674825        -2.103649         0.016091
 H         2.109518        -0.061972         3.920286
