19
Iteration:  3245
 C        -1.140922         0.648539         2.272083
 C         0.209262         0.980435         1.752698
 C         0.931540         2.230639         1.464413
 C         2.186563         1.332960         1.237228
 O         1.925054         0.682411        -0.017859
 C         0.889292        -0.015819         0.639720
 C         0.182304        -1.128646         0.075284
 C         1.506122         0.245529         2.046869
 O         2.181061        -0.309084         3.187866
 H        -1.424637         1.410293         3.138364
 H        -1.868669         0.643173         1.427613
 H        -1.352788        -0.214176         2.952174
 H         0.505361         3.073927         0.904976
 H         1.006098         2.785040         2.441957
 H         3.219137         1.658112         1.321931
 H        -0.557715        -1.486965         0.811207
 H        -0.471204        -0.758506        -0.772161
 H         0.606512        -2.063190        -0.209750
 H         2.041877        -1.295018         3.116186
