19
Iteration:    76charge 0 multiplicity 1
 C        -1.169003         0.779545         2.519569
 C         0.148233         0.985812         1.695600
 C         0.906852         2.383464         1.387635
 C         2.186108         1.359386         1.225320
 O         1.961576         0.740562        -0.041702
 C         0.873022        -0.023591         0.601153
 C         0.487005        -1.320129         0.292214
 C         1.483893         0.261571         1.907826
 O         1.905009        -0.529633         2.991124
 H        -1.030903         1.251173         3.448576
 H        -2.034420         1.329125         2.139459
 H        -1.434832        -0.206489         2.636962
 H         0.690664         2.851928         0.465151
 H         1.064465         2.991731         2.230374
 H         3.201799         1.696313         1.381745
 H         0.434923        -1.691809         1.234920
 H        -0.369621        -1.645433        -0.350346
 H         1.439599        -1.702078        -0.091965
 H         1.733800        -0.121912         3.858638
