19
Iteration:  4482charge 0 multiplicity 1
 C        -1.178053         0.746533         2.256817
 C         0.167293         0.965394         1.827854
 C         0.846661         2.381007         1.496638
 C         2.143407         1.479946         1.225833
 O         1.879256         0.686388         0.009328
 C         0.926352        -0.021808         0.788070
 C         0.367289        -1.294166         0.211448
 C         1.523072         0.380467         2.011626
 O         2.162475        -0.621752         2.893623
 H        -1.428796         1.282408         3.194306
 H        -2.003914         1.104518         1.525907
 H        -1.297914        -0.349312         2.437137
 H         0.373261         2.836416         0.606137
 H         0.756967         3.129893         2.302416
 H         3.239349         1.672782         1.365025
 H        -0.715385        -1.169174         0.046985
 H         0.850086        -1.588545        -0.786622
 H         0.386611        -2.143510         0.947477
 H         2.186042        -0.218799         3.800627
