19
Iteration:  3381
 C        -1.194506         0.833046         2.326468
 C         0.207350         0.982671         1.727351
 C         0.895767         2.325352         1.466984
 C         2.206950         1.503251         1.162682
 O         1.843147         0.792003        -0.079994
 C         0.948914        -0.063687         0.771867
 C         0.341328        -1.345209         0.161221
 C         1.600725         0.309036         2.130087
 O         2.029902        -0.584660         3.112853
 H        -1.268995         0.912946         3.349328
 H        -1.990537         1.308068         1.695468
 H        -1.399703        -0.224385         2.151628
 H         0.428868         2.856747         0.710411
 H         0.845825         2.863121         2.304331
 H         3.221723         1.953226         1.067913
 H        -0.372747        -1.742277         0.911065
 H        -0.250228        -1.018817        -0.652609
 H         1.183058        -2.036787        -0.054088
 H         2.118183        -1.473243         2.747346
