19
Iteration:  1160charge 0 multiplicity 1
 C        -1.173601         0.714024         2.315064
 C         0.260240         0.993670         1.763577
 C         0.914364         2.337683         1.532761
 C         2.185567         1.410830         1.281155
 O         1.966595         0.795992         0.035310
 C         0.842601         0.063943         0.669320
 C         0.204949        -1.179305         0.140325
 C         1.531938         0.265539         2.036619
 O         2.083867        -0.726526         2.865311
 H        -1.347770         1.655291         2.839238
 H        -2.031871         0.492298         1.609353
 H        -1.257928        -0.082973         3.121673
 H         0.419605         3.102371         0.952486
 H         1.294181         2.938536         2.396779
 H         3.141890         1.754662         1.617059
 H        -0.417909        -1.761639         0.855145
 H        -0.429406        -0.982343        -0.661931
 H         1.054420        -1.831926        -0.123701
 H         2.139560        -0.435026         3.817163
