19
Iteration:   787
 C        -1.166145         0.773338         2.398497
 C         0.201222         0.947974         1.830367
 C         0.922828         2.331388         1.534998
 C         2.115496         1.430789         1.197513
 O         1.909670         0.687844        -0.055534
 C         0.949766        -0.026609         0.674023
 C         0.365231        -1.208856         0.108406
 C         1.498243         0.220331         1.972028
 O         2.061853        -0.543699         2.997817
 H        -1.726822         1.715015         2.250999
 H        -1.690354        -0.039031         1.848140
 H        -1.227844         0.453688         3.460530
 H         0.524903         3.050046         0.823079
 H         1.203518         2.950580         2.446334
 H         3.076867         1.976677         1.152659
 H        -0.148001        -1.753174         1.052078
 H        -0.467552        -1.001382        -0.598088
 H         1.014842        -1.938440        -0.235733
 H         1.821341        -0.105353         3.835931
