19
Iteration:  4388charge 0 multiplicity 1
 C        -1.104948         0.591033         2.459370
 C         0.189410         1.019783         1.697655
 C         1.011093         2.315621         1.441349
 C         2.132598         1.451141         1.210176
 O         1.840462         0.699336        -0.075937
 C         0.941386        -0.030333         0.731728
 C         0.301252        -1.211531        -0.010075
 C         1.528029         0.225276         2.009631
 O         1.999658        -0.446997         3.174748
 H        -1.132083         1.098261         3.414710
 H        -2.054402         0.757871         2.042630
 H        -0.944630        -0.448833         2.603928
 H         0.731536         2.987866         0.616716
 H         1.009025         2.963944         2.282622
 H         3.196514         1.753682         1.370517
 H        -0.589572        -1.610600         0.497745
 H         0.071978        -0.758259        -0.918429
 H         1.027226        -2.082577        -0.128113
 H         1.814407         0.209242         3.866163
