19
Iteration:  4520
 C        -1.173227         0.728559         2.404153
 C         0.179581         0.946433         1.668581
 C         0.810429         2.327493         1.540952
 C         2.205040         1.474843         1.161077
 O         1.816241         0.818993        -0.109938
 C         0.906247         0.047585         0.721221
 C         0.472745        -1.310635         0.226388
 C         1.574292         0.243315         1.989785
 O         1.973440        -0.599273         3.033405
 H        -1.098797         1.121993         3.455171
 H        -2.003313         1.380365         1.910261
 H        -1.516380        -0.323428         2.519617
 H         0.582826         2.928712         0.604788
 H         1.133296         2.924411         2.444933
 H         3.296350         1.636352         1.243083
 H        -0.324863        -1.442830        -0.519956
 H         1.376164        -1.878300        -0.074716
 H         0.119083        -1.779849         1.140466
 H         2.648817        -0.330204         3.654707
