19
Iteration:  4491
 C        -1.185788         0.724113         2.322630
 C         0.155049         1.019264         1.774959
 C         0.818902         2.369819         1.483270
 C         2.136352         1.486545         1.218980
 O         1.910017         0.724505        -0.003795
 C         0.943181        -0.071644         0.757771
 C         0.355394        -1.332507         0.228792
 C         1.494243         0.330649         2.125027
 O         2.088640        -0.572422         2.837215
 H        -1.248894         1.232593         3.289322
 H        -1.836371         1.103454         1.591253
 H        -1.442609        -0.364945         2.414288
 H         0.616102         3.006498         0.678222
 H         1.238938         2.986308         2.313858
 H         3.188436         1.757680         1.373336
 H        -0.665126        -1.214357        -0.178783
 H         1.075088        -1.675004        -0.664723
 H         0.498632        -2.099764         0.971463
 H         2.543490        -0.239602         3.644927
