19
Iteration:  3812
 C        -1.270283         0.830654         2.185576
 C         0.184702         0.947817         1.764389
 C         0.944038         2.359400         1.566737
 C         2.174261         1.565353         1.179800
 O         1.805050         0.844063        -0.083351
 C         0.921579        -0.083966         0.774971
 C         0.336336        -1.388160         0.299624
 C         1.691931         0.207828         2.078438
 O         2.095873        -0.655127         2.972601
 H        -1.412010         0.947842         3.237298
 H        -1.835941         1.689705         1.718617
 H        -1.760062        -0.181882         1.873360
 H         0.477841         3.050764         0.730859
 H         0.976405         2.840072         2.534817
 H         3.187439         1.936250         1.051986
 H         0.123836        -2.112894         1.027022
 H        -0.563883        -1.132147        -0.336688
 H         0.984724        -1.963843        -0.369438
 H         2.180192        -0.125553         3.816662
