19
Iteration:  4329charge 0 multiplicity 1
 C        -1.106816         0.778867         2.485338
 C         0.185383         1.008924         1.775108
 C         0.905687         2.320865         1.405532
 C         2.214065         1.545787         1.138527
 O         1.885667         0.760733        -0.048499
 C         1.062538        -0.064543         0.677021
 C         0.380442        -1.312861         0.153255
 C         1.507506         0.275795         2.052110
 O         1.906506        -0.612762         3.018840
 H        -1.161953         1.100449         3.505137
 H        -1.894090         1.365580         1.905669
 H        -1.499358        -0.250319         2.441818
 H         0.358464         2.805191         0.533045
 H         0.952714         2.912796         2.346195
 H         3.253967         1.777194         1.212747
 H         0.360652        -2.039703         0.942248
 H        -0.653296        -1.291220        -0.193070
 H         0.915598        -1.720229        -0.643158
 H         1.471143        -0.418507         3.884774
