19
Iteration:  3071charge 0 multiplicity 1
 C        -1.167252         0.805709         2.305572
 C         0.191730         0.964583         1.682925
 C         0.965389         2.175416         1.485623
 C         2.214525         1.481533         1.182380
 O         1.901352         0.685234        -0.035952
 C         0.867767        -0.045261         0.701150
 C         0.183060        -1.247453         0.097743
 C         1.598353         0.310092         2.093045
 O         2.038141        -0.478112         3.179884
 H        -1.387485         1.273755         3.355572
 H        -1.902986         1.217423         1.526754
 H        -1.239234        -0.287270         2.467766
 H         0.602274         2.810529         0.603316
 H         1.010226         2.514565         2.566458
 H         3.103034         2.084552         1.214405
 H        -0.200610        -1.897261         1.000594
 H        -0.707355        -0.998684        -0.668058
 H         1.029910        -1.805665        -0.413292
 H         2.975619        -0.320150         3.176221
