19
Iteration:  2412charge 0 multiplicity 1
 C        -1.114530         0.718579         2.354415
 C         0.164497         1.025442         1.723159
 C         0.956126         2.329771         1.437878
 C         2.216161         1.405369         1.184630
 O         1.864671         0.731773        -0.077963
 C         0.841143         0.023260         0.719448
 C         0.309970        -1.241603         0.178242
 C         1.472732         0.255635         2.119632
 O         2.072063        -0.572665         3.047666
 H        -1.027548         0.913022         3.427950
 H        -1.907852         1.245044         1.871142
 H        -1.364737        -0.333793         2.267466
 H         0.543828         2.942466         0.604718
 H         1.011073         2.941489         2.364795
 H         3.410685         1.558718         1.116559
 H        -0.239397        -1.806379         0.879520
 H        -0.364530        -1.135420        -0.662016
 H         1.184969        -1.747723        -0.163047
 H         2.169730        -0.079445         3.874826
