19
Iteration:  3099
 C        -1.088049         0.786409         2.386028
 C         0.306430         1.019384         1.848287
 C         0.933725         2.336137         1.451721
 C         2.150432         1.434871         1.139786
 O         1.771307         0.716486        -0.124451
 C         1.007404        -0.135110         0.718538
 C         0.373943        -1.281488         0.122711
 C         1.577939         0.286806         2.027081
 O         1.853929        -0.466848         3.183964
 H        -1.265192         1.085112         3.395673
 H        -1.688141         1.453264         1.840773
 H        -1.475437        -0.240044         2.163933
 H         0.526686         2.923850         0.610309
 H         1.024399         2.920886         2.381143
 H         3.196995         1.823460         1.264170
 H         0.040749        -1.941125         0.848820
 H        -0.377712        -1.087635        -0.534285
 H         1.148173        -1.741820        -0.433692
 H         2.276423        -1.307494         2.896555
