19
Iteration:  1026
 C        -1.044389         0.693124         2.531433
 C         0.243307         1.023575         1.800778
 C         0.935018         2.293325         1.458998
 C         2.203833         1.546779         1.192525
 O         1.842588         0.843911        -0.064588
 C         1.050119        -0.027050         0.662926
 C         0.325859        -1.194425         0.038524
 C         1.561433         0.240477         2.036058
 O         1.784171        -0.728349         2.975845
 H        -0.864242         0.624681         3.647757
 H        -1.973794         1.318413         2.426814
 H        -1.296982        -0.313517         2.208609
 H         0.773490         2.921896         0.626211
 H         1.189961         2.864076         2.411708
 H         3.229530         2.054927         1.226228
 H         0.157656        -1.833886         0.979742
 H        -0.568962        -0.976050        -0.457786
 H         0.926231        -1.769989        -0.530029
 H         1.650704        -0.408605         3.924672
