19
Iteration:  4709
 C        -1.158311         0.744453         2.493390
 C         0.184062         0.971621         1.787756
 C         0.831500         2.333610         1.518908
 C         2.189489         1.473417         1.099294
 O         1.936160         0.756797        -0.085508
 C         0.929137        -0.022515         0.708411
 C         0.416812        -1.366363         0.169338
 C         1.520353         0.343044         1.967778
 O         1.914641        -0.519920         3.035495
 H        -1.196223         1.155173         3.559651
 H        -1.954542         1.261757         1.912261
 H        -1.353771        -0.398403         2.664723
 H         0.488393         3.117114         0.810087
 H         1.234604         2.668446         2.575316
 H         3.134159         2.041778         1.037838
 H         0.324131        -1.400676        -0.914670
 H         1.099649        -2.210016         0.547850
 H        -0.460310        -1.498534         0.717120
 H         2.666497        -1.006180         2.657366
