19
Iteration:   782
 C        -1.195161         0.761793         2.357497
 C         0.208474         0.970054         1.807503
 C         0.910712         2.296196         1.545803
 C         2.136665         1.457920         1.229087
 O         1.936669         0.671887        -0.089278
 C         0.913526        -0.008814         0.707576
 C         0.308063        -1.219634         0.106575
 C         1.512790         0.207141         2.014468
 O         2.081334        -0.513493         2.976534
 H        -1.634908         1.763053         2.398251
 H        -1.762279        -0.026636         1.876655
 H        -1.147602         0.450062         3.403567
 H         0.490870         3.075494         0.865514
 H         1.102691         2.784215         2.505219
 H         3.155005         1.939678         1.313715
 H        -0.067109        -1.639869         0.962924
 H        -0.475555        -1.110000        -0.646603
 H         1.067303        -2.038734        -0.234413
 H         2.005871        -0.070754         3.836857
