19
Iteration:  3023
 C        -1.204732         0.642119         2.195467
 C         0.224091         0.952262         1.891973
 C         0.927558         2.293024         1.436408
 C         2.230173         1.447891         1.139666
 O         1.906780         0.669561        -0.059179
 C         0.914350        -0.053049         0.785104
 C         0.101556        -1.157798         0.062590
 C         1.600934         0.291016         2.134786
 O         2.098364        -0.430383         3.200896
 H        -1.550258         1.621537         2.644089
 H        -1.733451         0.546181         1.290690
 H        -1.385078        -0.121756         2.984718
 H         0.528484         2.961907         0.757817
 H         1.216241         2.641003         2.360305
 H         3.206733         1.828994         1.090441
 H        -0.664384        -1.555599         0.676927
 H        -0.413737        -0.740047        -0.806816
 H         0.738383        -1.963103        -0.280672
 H         3.009049        -0.788755         2.984898
