19
Iteration:  3898charge 0 multiplicity 1
 C        -1.066226         0.718809         2.386079
 C         0.279090         0.926445         1.784956
 C         0.903724         2.246478         1.472067
 C         2.149975         1.490190         1.162019
 O         1.810902         0.839892        -0.143019
 C         0.922115        -0.050075         0.709705
 C         0.312277        -1.291279         0.097093
 C         1.591127         0.243945         2.054192
 O         1.999433        -0.506809         3.158841
 H        -1.050375         0.657820         3.492520
 H        -1.646322         1.662039         1.981572
 H        -1.495733        -0.337287         2.029637
 H         0.336840         2.767456         0.729494
 H         1.233022         2.847270         2.350194
 H         3.192432         1.756067         1.289679
 H        -0.458233        -1.614046         0.812016
 H        -0.230087        -1.020982        -0.888846
 H         0.991877        -2.154393        -0.264690
 H         1.618045        -0.063718         3.929502
