19
Iteration:  1834
 C        -1.237832         0.790654         2.240866
 C         0.166835         0.906027         1.670856
 C         0.928443         2.268819         1.481072
 C         2.196054         1.527441         1.295345
 O         1.867121         0.762333        -0.035675
 C         0.917656        -0.075330         0.772075
 C         0.271966        -1.348572         0.135541
 C         1.599479         0.336586         2.033841
 O         2.139628        -0.540803         3.037457
 H        -1.047740         0.946904         3.378280
 H        -1.916911         1.566319         1.851976
 H        -1.590054        -0.222155         2.229177
 H         0.557774         3.075046         0.745607
 H         1.038889         2.584809         2.509016
 H         3.148594         2.002653         1.388525
 H        -0.215771        -1.862909         1.023421
 H        -0.507656        -1.010079        -0.668614
 H         0.920157        -2.121592        -0.235281
 H         1.959273        -0.131230         3.896920
