19
Iteration:  3049
 C        -1.171606         0.703323         2.237345
 C         0.180105         0.977812         1.729308
 C         0.972227         2.338433         1.499428
 C         2.155633         1.375774         1.274799
 O         1.903245         0.720707        -0.017947
 C         0.957824        -0.114225         0.714817
 C         0.157533        -1.185494         0.136085
 C         1.524536         0.164336         2.061473
 O         2.123652        -0.390473         3.114225
 H        -1.477987         1.613535         2.962029
 H        -1.850052         0.927761         1.315584
 H        -1.287611        -0.259268         2.773678
 H         0.478453         2.689333         0.456654
 H         1.009236         3.009079         2.452373
 H         3.253309         1.398514         1.297457
 H        -0.539164        -1.687193         0.981879
 H        -0.640844        -0.683176        -0.665550
 H         0.761727        -1.984618        -0.412320
 H         3.110273        -0.185959         3.175377
