19
Iteration:  2655charge 0 multiplicity 1
 C        -1.291279         0.798233         2.153308
 C         0.218014         1.067344         1.947274
 C         0.919588         2.272273         1.616849
 C         2.135364         1.432401         1.240889
 O         1.866604         0.690881        -0.044345
 C         0.981803        -0.147146         0.763595
 C         0.139077        -1.141606         0.092794
 C         1.566404         0.173718         2.042454
 O         2.288495        -0.546475         2.967103
 H        -1.817833         0.318415         1.250268
 H        -1.512500         0.193757         3.009764
 H        -1.754476         1.761627         2.353353
 H         0.690000         2.995316         0.871018
 H         1.120938         2.746180         2.526974
 H         3.273938         1.933078         1.140358
 H        -0.530357        -1.579023         0.734622
 H        -0.237967        -0.619808        -0.767540
 H         0.742641        -1.943292        -0.343194
 H         2.086350        -0.345210         3.886089
