19
Iteration:  3606charge 0 multiplicity 1
 C        -1.272601         0.910220         2.202957
 C         0.187889         0.983228         1.759324
 C         0.871890         2.284782         1.518294
 C         2.195323         1.452205         1.219613
 O         1.787433         0.744041        -0.070050
 C         0.871819        -0.021435         0.743474
 C         0.414057        -1.334795         0.208445
 C         1.641867         0.249889         2.089261
 O         2.187400        -0.605702         3.031903
 H        -1.438917         0.836575         3.379319
 H        -1.859982         1.737580         1.851369
 H        -1.701401        -0.066693         1.754498
 H         0.499363         2.854629         0.706223
 H         1.005878         2.871919         2.347799
 H         3.049858         2.126367         1.201032
 H         0.285773        -1.963675         1.080845
 H        -0.641560        -1.275746        -0.342026
 H         1.275171        -1.743340        -0.353533
 H         1.572926        -0.641023         3.795460
