19
Iteration:  3447charge 0 multiplicity 1
 C        -1.157746         0.731988         2.293930
 C         0.213125         0.919572         1.709822
 C         0.927702         2.334736         1.601249
 C         2.137578         1.459739         1.275906
 O         1.897810         0.686050        -0.056995
 C         0.965686        -0.046424         0.706606
 C         0.185164        -1.258686         0.033524
 C         1.470073         0.211096         2.052161
 O         2.202872        -0.332906         3.100315
 H        -1.406229         1.503603         2.938869
 H        -1.833934         0.380284         1.429007
 H        -1.212797        -0.145145         2.961837
 H         0.744120         3.017675         0.834522
 H         0.909734         2.717990         2.549125
 H         3.199129         1.718259         1.240231
 H        -0.915179        -1.500633         0.266787
 H        -0.036919        -0.953831        -0.944548
 H         0.749791        -2.220710         0.106528
 H         1.861564        -1.140142         3.557784
