19
Iteration:  2591charge 0 multiplicity 1
 C        -1.131916         0.660326         2.448562
 C         0.189568         1.032291         1.773684
 C         1.031741         2.292804         1.555023
 C         2.260009         1.402744         1.190865
 O         1.889787         0.722469        -0.080117
 C         0.939570         0.028687         0.685023
 C         0.284754        -1.239752         0.119374
 C         1.497653         0.345719         2.010792
 O         1.907656        -0.564922         2.946169
 H        -2.004692         0.386157         1.814563
 H        -0.858392        -0.121793         3.159115
 H        -1.457681         1.451827         3.099373
 H         0.857653         2.936932         0.671108
 H         1.049847         2.916927         2.452206
 H         3.227730         1.974547         1.301276
 H         0.021325        -1.935917         0.880348
 H        -0.649394        -1.049984        -0.417015
 H         1.023057        -1.845027        -0.362937
 H         1.733349        -0.266774         3.843680
