19
Iteration:  2934charge 0 multiplicity 1
 C        -1.087297         0.791832         2.491725
 C         0.190426         1.038928         1.677982
 C         0.940705         2.300434         1.455185
 C         2.227632         1.453274         1.125264
 O         1.847729         0.727141        -0.102119
 C         0.916332        -0.058622         0.748637
 C         0.437847        -1.337386         0.159406
 C         1.568678         0.354360         2.105469
 O         1.769176        -0.541321         3.060225
 H        -0.852532         1.077647         3.520335
 H        -1.965916         1.399302         2.238732
 H        -1.364545        -0.304427         2.512382
 H         0.631190         2.903929         0.626984
 H         0.963182         2.787780         2.405231
 H         3.310069         1.882346         0.998657
 H        -0.112970        -1.953816         0.823622
 H        -0.244212        -1.182631        -0.649541
 H         1.298263        -1.910779        -0.225911
 H         2.681001        -0.939594         2.964223
