19
Iteration:  4035
 C        -1.204992         0.723927         2.098727
 C         0.185470         0.984420         1.780908
 C         0.956918         2.295700         1.574890
 C         2.174794         1.382707         1.248963
 O         1.780006         0.785043        -0.049878
 C         0.899665        -0.007748         0.747746
 C         0.268563        -1.243969         0.305156
 C         1.578187         0.241924         2.085985
 O         2.196994        -0.551387         2.915376
 H        -1.405311         1.536124         2.908451
 H        -1.928823         0.890677         1.238322
 H        -1.428676        -0.274883         2.591385
 H         0.624638         3.064678         0.844847
 H         1.053787         2.795643         2.502911
 H         3.272139         1.589945         1.269815
 H        -0.216689        -1.752207         1.175222
 H        -0.528975        -0.870609        -0.362666
 H         0.995748        -1.882310        -0.236942
 H         2.190212        -0.120230         3.815498
