19
Iteration:  2667
 C        -1.258629         0.832069         2.190132
 C         0.185966         1.000789         1.896393
 C         0.973366         2.313125         1.630154
 C         2.152194         1.398722         1.291842
 O         1.881705         0.673947         0.005265
 C         0.932800        -0.055925         0.716983
 C         0.137392        -1.220755         0.044472
 C         1.508193         0.235771         2.069900
 O         2.326108        -0.522369         2.928971
 H        -1.761784         0.325141         1.305959
 H        -1.317736         0.061503         2.972734
 H        -1.839681         1.688003         2.474328
 H         0.508255         2.798841         0.802332
 H         1.204986         3.025025         2.378309
 H         3.319365         1.827112         1.365520
 H        -0.658628        -1.526728         0.672203
 H        -0.447049        -0.949690        -0.827151
 H         0.840075        -1.988468        -0.256687
 H         1.825283        -0.492417         3.797972
