19
Iteration:  2102
 C        -1.175764         0.743760         2.338352
 C         0.145163         0.941030         1.685519
 C         0.990030         2.271381         1.568462
 C         2.219891         1.436295         1.236698
 O         1.814609         0.762351        -0.019186
 C         0.938293        -0.035206         0.746904
 C         0.251152        -1.210449         0.065479
 C         1.587014         0.200647         1.984760
 O         2.108019        -0.529143         3.036611
 H        -1.900087         0.793956         1.558784
 H        -1.351698        -0.300806         2.748825
 H        -1.411338         1.493505         3.122230
 H         0.756872         3.139177         0.913808
 H         1.010992         2.640314         2.642256
 H         3.215332         2.029235         1.352018
 H        -0.292348        -1.836646         0.906049
 H        -0.593278        -0.843296        -0.463279
 H         0.923586        -1.905677        -0.604017
 H         1.975169         0.125733         3.734831
