19
Iteration:    43charge 0 multiplicity 1
 C        -1.059493         0.877469         2.422328
 C         0.247734         1.015827         1.686801
 C         0.912200         2.388351         1.433724
 C         2.156417         1.580759         1.074374
 O         1.719128         0.712648        -0.049948
 C         1.031611        -0.136927         0.783080
 C         0.598169        -1.405132         0.238656
 C         1.580718         0.294894         2.053961
 O         1.740420        -0.670407         3.017629
 H        -0.979414         1.198995         3.415481
 H        -1.835695         1.440261         1.884145
 H        -1.398400        -0.088425         2.542874
 H         0.578807         3.117245         0.745842
 H         1.053923         2.987045         2.287430
 H         3.132099         2.013770         0.905394
 H         0.421121        -2.036139         0.999995
 H        -0.261529        -1.393209        -0.489059
 H         1.483293        -1.819531        -0.263755
 H         1.393635        -0.244134         3.877369
