19
Iteration:  1354
 C        -1.206797         0.771074         2.340707
 C         0.178853         0.938947         1.747137
 C         0.980029         2.277210         1.548966
 C         2.252433         1.506200         1.223798
 O         1.867629         0.822243         0.012373
 C         0.917337         0.004123         0.743911
 C         0.331598        -1.306018         0.126270
 C         1.527682         0.271604         1.983139
 O         2.020105        -0.625063         2.907328
 H        -1.520627        -0.192781         2.732805
 H        -1.204964         1.445714         3.205880
 H        -1.982226         1.002524         1.615872
 H         0.498824         3.019064         0.944319
 H         1.201088         2.810184         2.468586
 H         3.297550         1.795289         1.620188
 H        -0.404783        -1.820980         0.855280
 H        -0.122204        -1.110023        -0.841253
 H         1.023248        -2.091025        -0.027883
 H         1.799018        -0.329039         3.843240
