19
Iteration:  4093
 C        -1.179905         0.820310         2.347904
 C         0.204940         0.936988         1.767891
 C         0.868670         2.280060         1.447287
 C         2.201882         1.538349         1.288385
 O         1.809923         0.680020        -0.080275
 C         0.949474         0.019024         0.736946
 C         0.351674        -1.285533         0.185488
 C         1.552156         0.218017         1.982916
 O         2.087557        -0.594495         3.018135
 H        -1.154719         1.104368         3.475425
 H        -1.728717         1.626028         1.802934
 H        -1.476352        -0.180092         2.130931
 H         0.570430         2.855604         0.530295
 H         0.864450         2.915920         2.423234
 H         3.142562         2.075666         1.244418
 H        -0.016194        -1.830041         1.019541
 H        -0.436352        -0.942008        -0.429392
 H         1.045472        -1.870607        -0.480916
 H         2.003871        -0.217096         3.901253
