19
Iteration:  1877charge 0 multiplicity 1
 C        -1.218753         0.604492         2.130202
 C         0.252979         0.995557         1.933395
 C         0.954263         2.293557         1.518684
 C         2.167056         1.447992         1.149705
 O         1.802814         0.733970        -0.061391
 C         1.009974        -0.096885         0.803726
 C         0.171453        -1.144255         0.134169
 C         1.614635         0.308912         2.112732
 O         2.121586        -0.525760         3.071471
 H        -1.759361         1.374682         2.775333
 H        -1.680804         0.293528         1.234035
 H        -1.385977        -0.321955         2.636480
 H         0.652193         2.867221         0.543484
 H         1.214241         3.003945         2.320027
 H         3.108195         1.941803         1.061619
 H        -0.498657        -1.710988         0.843450
 H        -0.296649        -0.569796        -0.790999
 H         0.833155        -1.827480        -0.370194
 H         2.168449        -0.056400         3.910748
