19
Iteration:   645charge 0 multiplicity 1
 C        -1.032867         0.791935         2.558391
 C         0.229295         0.993697         1.699884
 C         0.913771         2.346941         1.461680
 C         2.147011         1.481364         1.071630
 O         1.824440         0.729277        -0.159741
 C         1.008678        -0.068644         0.717209
 C         0.495325        -1.364926         0.140101
 C         1.546987         0.299836         2.019347
 O         1.758370        -0.547437         3.103552
 H        -0.723660         0.470810         3.581832
 H        -1.712982         1.697110         2.624692
 H        -1.787052         0.088432         2.097224
 H         0.462652         3.106352         0.852375
 H         1.210420         2.823871         2.447401
 H         3.250149         1.589019         1.117733
 H         0.083442        -2.163637         0.886865
 H        -0.253843        -1.191853        -0.672890
 H         1.322935        -1.798133        -0.284719
 H         1.675694        -0.052874         3.928197
