19
Iteration:  4486charge 0 multiplicity 1
 C        -1.164549         0.733253         2.288390
 C         0.138732         0.981927         1.812138
 C         0.825989         2.378314         1.500758
 C         2.142297         1.489094         1.220307
 O         1.896025         0.701704         0.006257
 C         0.932858        -0.059479         0.768377
 C         0.367505        -1.315163         0.207343
 C         1.511306         0.365628         2.072530
 O         2.125179        -0.596359         2.859286
 H        -1.295132         1.279702         3.239472
 H        -1.942741         1.103458         1.501215
 H        -1.358929        -0.317884         2.390525
 H         0.471382         2.989159         0.562148
 H         1.040984         3.125456         2.298865
 H         3.220962         1.621729         1.397299
 H        -0.685929        -1.170376        -0.058769
 H         0.891704        -1.600500        -0.617827
 H         0.456385        -2.126554         0.980202
 H         2.372552        -0.233473         3.725703
