19
Iteration:  4558charge 0 multiplicity 1
 C        -1.150189         0.678162         2.443004
 C         0.216986         0.994334         1.770649
 C         0.893059         2.379091         1.517799
 C         2.188431         1.529270         1.052046
 O         1.770110         0.765885        -0.058388
 C         0.943479        -0.067789         0.729844
 C         0.396849        -1.344992         0.079142
 C         1.685870         0.300650         2.052573
 O         1.976862        -0.583873         3.069053
 H        -1.063252         1.055244         3.456872
 H        -1.904474         1.232748         1.962689
 H        -1.545603        -0.327422         2.439757
 H         0.349841         3.053291         0.890931
 H         1.024061         2.910853         2.453669
 H         3.092553         2.118828         0.862738
 H         0.348972        -1.274888        -1.021680
 H         1.206820        -2.074965         0.329921
 H        -0.516092        -1.775638         0.570658
 H         1.522507        -0.214924         3.848237
