19
Iteration:  1050charge 0 multiplicity 1
 C        -1.009184         0.655583         2.543055
 C         0.219562         0.947417         1.688713
 C         0.908898         2.377590         1.615589
 C         2.223333         1.411970         1.198118
 O         1.947836         0.799748        -0.043380
 C         0.821280         0.037991         0.667872
 C         0.277898        -1.188372         0.039748
 C         1.560629         0.261178         1.989496
 O         1.903089        -0.609670         2.944100
 H        -1.053040         1.211159         3.495756
 H        -1.907007         1.072477         1.963136
 H        -1.195574        -0.451700         2.642263
 H         0.777233         2.932583         0.607645
 H         0.950963         2.967209         2.606132
 H         3.250645         1.560791         1.458594
 H        -0.094628        -1.881868         0.938921
 H        -0.445164        -1.065338        -0.741220
 H         1.176121        -1.749795        -0.401051
 H         1.456068        -0.433091         3.806620
