19
Iteration:  1844
 C        -1.183899         0.731156         2.186312
 C         0.198914         0.939152         1.702836
 C         0.900018         2.226121         1.527622
 C         2.157425         1.457919         1.173173
 O         1.885233         0.813501         0.020227
 C         0.911678        -0.041583         0.750602
 C         0.218189        -1.279273         0.171313
 C         1.619558         0.236989         2.102641
 O         2.161365        -0.495820         3.057823
 H        -1.352723         1.196500         3.217930
 H        -1.865641         1.395494         1.608129
 H        -1.557835        -0.263174         2.191469
 H         0.600932         2.916677         0.633782
 H         0.910213         2.849425         2.437302
 H         3.141141         1.898408         1.053630
 H        -0.462298        -1.872563         0.878080
 H        -0.531262        -1.032366        -0.716752
 H         0.986754        -1.902949        -0.216015
 H         2.091600        -0.273565         4.000762
