19
Iteration:  2671charge 0 multiplicity 1
 C        -1.271512         0.811657         2.214034
 C         0.243395         0.982580         1.855063
 C         0.957017         2.320018         1.610506
 C         2.192979         1.384778         1.278661
 O         1.882346         0.690921         0.021043
 C         0.884063        -0.044750         0.711550
 C         0.152615        -1.228753         0.046842
 C         1.485892         0.270225         2.081260
 O         2.325653        -0.527222         2.934362
 H        -1.776305         0.359238         1.392128
 H        -1.434139        -0.031172         2.986558
 H        -1.771132         1.767917         2.524534
 H         0.510976         2.850311         0.706479
 H         1.227340         3.081295         2.449241
 H         3.167717         1.653338         1.498124
 H        -0.708743        -1.432132         0.812951
 H        -0.418767        -1.058825        -0.915838
 H         0.913617        -1.957407        -0.338034
 H         1.802638        -0.560836         3.733342
