19
Iteration:   588charge 0 multiplicity 1
 C        -1.127979         0.745250         2.393120
 C         0.200241         0.965221         1.768013
 C         0.916697         2.232408         1.431327
 C         2.143732         1.490653         1.173096
 O         1.959457         0.729764        -0.107034
 C         1.010880        -0.070630         0.676650
 C         0.283948        -1.268887         0.186061
 C         1.473467         0.290609         2.082402
 O         2.008750        -0.475513         3.046250
 H        -0.954501         0.312280         3.424694
 H        -1.683975         1.693290         2.479858
 H        -1.648045        -0.078225         1.935838
 H         0.575356         2.709993         0.512312
 H         0.945928         2.875780         2.309069
 H         3.221123         1.849015         1.256272
 H        -0.326314        -1.524614         1.018293
 H        -0.431540        -0.981927        -0.641420
 H         0.777947        -2.167435        -0.113556
 H         1.786638        -0.129545         3.964741
