19
Iteration:  4621charge 0 multiplicity 1
 C        -1.130328         0.636766         2.304524
 C         0.187109         0.935044         1.737170
 C         0.867249         2.236878         1.510758
 C         2.168925         1.458944         1.231686
 O         1.867905         0.718395        -0.083757
 C         0.952919        -0.107530         0.722972
 C         0.129368        -1.169287         0.025273
 C         1.561522         0.267500         2.067165
 O         2.224004        -0.303319         3.198969
 H        -1.215923         1.265016         3.274243
 H        -2.087058         0.729060         1.684090
 H        -1.063567        -0.463581         2.795399
 H         0.458015         2.908857         0.700518
 H         1.008595         2.832417         2.569598
 H         3.141261         1.946706         1.111227
 H         0.299783        -1.111438        -1.051296
 H         0.486982        -2.226851         0.392522
 H        -0.928722        -1.091195         0.081051
 H         2.156568        -1.278103         3.119221
