19
Iteration:  1432charge 0 multiplicity 1
 C        -1.114986         0.714257         2.399166
 C         0.179740         0.983041         1.718133
 C         0.908063         2.410026         1.548789
 C         2.183172         1.404040         1.185456
 O         1.966589         0.785990        -0.051035
 C         0.864514         0.012128         0.625600
 C         0.368665        -1.279797         0.164143
 C         1.485494         0.229263         1.998610
 O         1.945674        -0.577509         3.017759
 H        -1.831804         0.342965         1.700999
 H        -0.915246        -0.059377         3.163933
 H        -1.476260         1.632002         2.949391
 H         0.802812         3.000163         0.685820
 H         0.911711         2.883900         2.551135
 H         3.253777         1.767936         1.296691
 H         0.286280        -1.941037         1.071458
 H        -0.528216        -1.222687        -0.368196
 H         1.085530        -1.842421        -0.427735
 H         1.875727        -0.328899         3.929296
