19
Iteration:    59
 C        -1.074262         0.858476         2.485292
 C         0.168537         1.032127         1.712252
 C         0.941736         2.282504         1.416957
 C         2.206286         1.480603         1.148909
 O         1.902452         0.743245        -0.122723
 C         0.852457         0.036957         0.733014
 C         0.582217        -1.501681         0.253827
 C         1.466570         0.388993         2.055998
 O         1.808010        -0.588991         2.971143
 H        -0.891574         1.224421         3.568144
 H        -1.940799         1.354067         2.012648
 H        -1.343159        -0.302515         2.459496
 H         0.537024         2.906806         0.542523
 H         1.005782         2.798872         2.452581
 H         3.243102         1.947498         1.166917
 H         0.308465        -2.319665         1.121330
 H        -0.277313        -1.485386        -0.391838
 H         1.423820        -1.882139        -0.342695
 H         1.398218        -0.400067         3.859292
