19
Iteration:   935charge 0 multiplicity 1
 C        -1.160612         0.763066         2.178525
 C         0.264729         0.909230         1.842317
 C         0.854269         2.314462         1.644407
 C         2.197135         1.460698         1.205150
 O         1.803646         0.746848        -0.068669
 C         0.938255        -0.084744         0.741199
 C         0.173595        -1.143071         0.100397
 C         1.554713         0.250978         2.037641
 O         2.239852        -0.587490         3.009445
 H        -1.495207        -0.317753         2.327086
 H        -1.359166         1.165193         3.233494
 H        -1.721441         1.446934         1.470359
 H         0.392685         3.008952         0.925077
 H         1.106149         2.691155         2.613554
 H         3.244619         1.958715         1.237130
 H        -0.490722        -1.610407         0.733305
 H        -0.400739        -0.810045        -0.800095
 H         0.996513        -1.965195         0.038997
 H         1.735018        -0.527393         3.878122
