19
Iteration:  4914
 C        -1.024118         0.755872         2.461655
 C         0.228055         0.926207         1.754400
 C         0.884083         2.266687         1.498439
 C         2.117744         1.560964         1.175630
 O         1.811376         0.774861        -0.110925
 C         0.938512        -0.061103         0.694661
 C         0.442612        -1.305178         0.095462
 C         1.585028         0.324927         2.051456
 O         1.842352        -0.570951         3.094907
 H        -1.024439         1.431249         3.384318
 H        -1.872259         1.274038         1.895975
 H        -1.236715        -0.286558         2.757860
 H         0.361046         2.931133         0.637066
 H         1.013680         2.904878         2.396647
 H         3.138247         2.020982         1.160025
 H         0.012088        -1.122321        -0.934567
 H         1.235619        -2.198228         0.196229
 H        -0.329678        -1.630679         0.750182
 H         2.728429        -0.964809         2.941143
