19
Iteration:  1708
 C        -1.126929         0.633511         2.220190
 C         0.267529         0.915188         1.727343
 C         0.887284         2.272155         1.502740
 C         2.187455         1.483455         1.155122
 O         1.851882         0.703940        -0.058135
 C         0.950497        -0.077938         0.772014
 C         0.212289        -1.220034         0.076348
 C         1.525900         0.285488         2.147290
 O         2.092809        -0.381315         3.138234
 H        -0.832719         0.341270         3.227878
 H        -1.690064         1.588234         2.186404
 H        -1.819748        -0.101762         1.721470
 H         0.595474         2.860239         0.638860
 H         0.884175         2.963502         2.461736
 H         3.200651         1.810436         1.237017
 H        -0.460919        -1.695076         0.751445
 H        -0.266841        -0.888599        -0.826539
 H         0.966022        -2.116236        -0.239975
 H         2.023674        -0.182909         4.057784
