19
Iteration:  3940
 C        -1.030307         0.672422         2.520844
 C         0.200313         1.013295         1.778095
 C         0.919283         2.268538         1.483453
 C         2.172359         1.360670         1.163507
 O         1.853039         0.732506        -0.146147
 C         0.942984        -0.009929         0.640263
 C         0.364504        -1.276131         0.023626
 C         1.494751         0.346708         2.006464
 O         1.898523        -0.483118         3.140737
 H        -0.734312         1.200788         3.434823
 H        -2.051364         0.875133         2.060201
 H        -0.736839        -0.401722         2.644554
 H         0.691851         3.210909         0.876232
 H         1.113241         2.790920         2.514190
 H         3.102430         1.870748         1.309598
 H        -0.393290        -1.722327         0.686118
 H        -0.100206        -0.980851        -0.952868
 H         1.282801        -1.964512        -0.161217
 H         1.586041        -0.135426         3.980584
