19
Iteration:  3412charge 0 multiplicity 1
 C        -1.180789         0.719134         2.267296
 C         0.208291         0.924072         1.812575
 C         0.950268         2.287865         1.472828
 C         2.205627         1.443100         1.210168
 O         1.847424         0.721301        -0.082976
 C         0.884347         0.005589         0.791484
 C         0.280673        -1.208169         0.147329
 C         1.553516         0.283811         2.142017
 O         2.135114        -0.457907         3.060711
 H        -1.630181         1.231543         3.132475
 H        -1.910077         0.970359         1.416885
 H        -1.227024        -0.299710         2.423232
 H         0.490989         2.738121         0.602255
 H         0.795971         2.942972         2.337287
 H         3.247752         1.859835         1.177501
 H        -0.643514        -1.524116         0.550326
 H         0.183117        -0.919198        -0.886773
 H         0.960953        -2.061796         0.064905
 H         1.755856        -1.367907         3.131425
