19
Iteration:    12charge 0 multiplicity 1
 C        -1.123137         0.818103         2.320825
 C         0.233526         0.976108         1.790915
 C         0.924223         2.171275         1.447491
 C         2.194120         1.521647         1.107599
 O         1.837314         0.764215        -0.140637
 C         0.944858        -0.010586         0.752117
 C         0.374290        -1.298494         0.148124
 C         1.599143         0.311812         2.103769
 O         1.884182        -0.597074         3.152840
 H        -1.243217         1.313638         3.288835
 H        -1.882510         1.164576         1.629762
 H        -1.275886        -0.265082         2.461424
 H         0.538799         2.639483         0.554587
 H         1.093829         2.869445         2.278001
 H         3.049884         2.192655         1.024147
 H         0.008845        -1.917820         1.006103
 H        -0.239752        -1.440564        -0.707696
 H         1.325008        -1.799263         0.002284
 H         1.871965        -0.069809         3.924721
