19
Iteration:  3753
 C        -1.107053         0.718669         2.471576
 C         0.193499         0.963469         1.737234
 C         0.991616         2.299018         1.427509
 C         2.179757         1.442848         1.241685
 O         1.852757         0.810849        -0.078927
 C         0.954446        -0.011046         0.695313
 C         0.349208        -1.305651         0.070603
 C         1.470959         0.293153         2.027292
 O         1.982711        -0.543035         3.035281
 H        -1.481669         1.460913         3.219647
 H        -1.986405         0.449398         1.772206
 H        -1.074933        -0.212812         3.002293
 H         0.706848         2.931817         0.722522
 H         1.053353         2.837352         2.388683
 H         3.210698         1.853928         1.169562
 H        -0.276388        -1.685760         0.963897
 H        -0.385267        -1.215281        -0.716387
 H         1.209888        -1.996915        -0.128576
 H         1.827166        -0.268024         3.950405
