19
Iteration:  3053
 C        -1.155848         0.727615         2.241846
 C         0.198160         0.946049         1.725426
 C         0.938395         2.342060         1.481037
 C         2.167104         1.367814         1.280496
 O         1.921425         0.729270        -0.018129
 C         0.915288        -0.085195         0.709795
 C         0.134275        -1.218898         0.125169
 C         1.522424         0.184190         2.059011
 O         2.130668        -0.406341         3.132496
 H        -1.304609         1.498059         2.907687
 H        -1.913708         0.949497         1.435473
 H        -1.346044        -0.239687         2.694770
 H         0.548909         2.909822         0.541918
 H         0.989044         2.998721         2.396436
 H         3.363774         1.501675         1.346447
 H        -0.435521        -1.713682         0.868192
 H        -0.587997        -0.858204        -0.563784
 H         0.733448        -1.964305        -0.406699
 H         3.042799        -0.171709         3.192736
