19
Iteration:  4092charge 0 multiplicity 1
 C        -1.176586         0.816675         2.340673
 C         0.198755         0.940912         1.773265
 C         0.873910         2.267812         1.452880
 C         2.195222         1.544943         1.289695
 O         1.799761         0.675255        -0.075927
 C         0.955215         0.018770         0.736794
 C         0.353682        -1.283078         0.192138
 C         1.557240         0.222752         1.982831
 O         2.087106        -0.597361         3.011748
 H        -1.197027         1.133762         3.486987
 H        -1.675998         1.644414         1.760378
 H        -1.480076        -0.177592         2.104368
 H         0.558936         2.842506         0.547479
 H         0.874531         2.887435         2.393341
 H         3.156276         2.045480         1.229798
 H        -0.016200        -1.814326         1.036994
 H        -0.406887        -0.905576        -0.419591
 H         1.055025        -1.847562        -0.506302
 H         2.012483        -0.168395         3.880099
