19
Iteration:  3083
 C        -1.159967         0.786522         2.321562
 C         0.219722         0.915954         1.748575
 C         0.927206         2.278803         1.501437
 C         2.211438         1.454664         1.101921
 O         1.864279         0.686565        -0.064572
 C         0.933127        -0.040676         0.762852
 C         0.314898        -1.230075         0.127432
 C         1.572446         0.248678         2.060850
 O         1.950103        -0.469333         3.174069
 H        -1.145535         1.280957         3.333732
 H        -1.988335         1.341054         1.725799
 H        -1.602930        -0.224090         2.366576
 H         0.471521         3.056531         0.771862
 H         1.143154         2.995915         2.364943
 H         3.255480         1.817663         0.926341
 H        -0.144591        -1.975053         0.876715
 H        -0.589860        -0.902108        -0.558295
 H         0.990648        -1.858310        -0.542641
 H         2.910075        -0.734824         3.203425
