19
Iteration:  1299
 C        -1.158637         0.624244         2.246273
 C         0.248570         0.899553         1.865291
 C         0.988224         2.228747         1.578826
 C         2.255950         1.538057         1.129997
 O         1.809898         0.754401        -0.023935
 C         0.946211        -0.040790         0.796983
 C         0.161487        -1.108235        -0.010396
 C         1.672031         0.268556         2.105398
 O         2.037530        -0.576555         3.075099
 H        -1.258548         0.088844         3.186604
 H        -1.778791         1.511100         2.289644
 H        -1.690819         0.130497         1.466731
 H         0.587281         2.639006         0.650443
 H         0.720293         3.004586         2.266773
 H         3.334714         1.907868         1.377202
 H        -0.864078        -1.302240         0.481853
 H        -0.340088        -0.494094        -0.825266
 H         0.638059        -1.907160        -0.434442
 H         2.295449        -0.110943         3.889278
