19
Iteration:  3745
 C        -1.040310         0.709133         2.477295
 C         0.210233         0.989764         1.671693
 C         0.930032         2.330527         1.480724
 C         2.140465         1.490801         1.242461
 O         1.874515         0.753221        -0.083909
 C         0.929619        -0.090237         0.673349
 C         0.334177        -1.276105         0.088348
 C         1.467906         0.281999         2.049476
 O         1.970647        -0.557314         3.040868
 H        -1.221503         1.531554         3.070191
 H        -1.844188         0.403994         1.748475
 H        -0.777053        -0.176869         3.121578
 H         0.630817         3.021120         0.607919
 H         0.983012         2.908307         2.435857
 H         3.122193         1.829828         1.488859
 H        -0.359254        -1.747177         0.770684
 H        -0.210635        -0.830264        -0.735813
 H         1.122065        -2.023773        -0.171820
 H         1.922621        -0.042785         3.854131
