19
Iteration:  1480charge 0 multiplicity 1
 C        -1.102407         0.640903         2.190391
 C         0.267250         0.971629         1.902145
 C         0.859059         2.299750         1.458558
 C         2.197140         1.531004         1.149646
 O         1.813901         0.685520        -0.039606
 C         0.968518        -0.081648         0.723414
 C         0.183066        -1.120567         0.028736
 C         1.632587         0.252753         2.079973
 O         2.077902        -0.524157         3.203873
 H        -1.795724         1.306868         1.602170
 H        -1.347329        -0.417206         2.011384
 H        -1.265078         0.843879         3.278466
 H         0.201624         2.770918         0.726797
 H         1.156548         2.838041         2.362693
 H         3.220256         1.768712         1.076128
 H        -0.322290        -1.710514         0.741471
 H        -0.391434        -0.601447        -0.806899
 H         0.864079        -1.956174        -0.407117
 H         1.912766        -0.111279         4.107470
