19
Iteration:  1862charge 0 multiplicity 1
 C        -1.200068         0.662456         2.126256
 C         0.244277         0.963049         1.896879
 C         0.870638         2.299086         1.489976
 C         2.170974         1.462355         1.248348
 O         1.787055         0.677031        -0.118355
 C         0.966878        -0.016080         0.768798
 C         0.259126        -1.120096         0.148069
 C         1.612924         0.231080         2.034971
 O         2.184005        -0.536836         3.116954
 H        -1.668224         1.294297         2.899392
 H        -1.766833         1.129624         1.270120
 H        -1.241786        -0.396890         2.498146
 H         0.388838         2.855770         0.698150
 H         0.983942         2.947525         2.415578
 H         3.286254         1.747310         1.318837
 H        -0.450751        -1.589469         0.885472
 H        -0.486463        -0.779659        -0.584927
 H         0.891652        -1.951913        -0.176115
 H         1.997511        -0.046071         3.947528
