19
Iteration:  4298
 C        -1.190141         0.747553         2.279695
 C         0.209040         1.027896         1.690215
 C         0.994834         2.297502         1.553681
 C         2.207167         1.458199         1.158987
 O         1.786774         0.781743        -0.018344
 C         0.844807        -0.014843         0.693047
 C         0.406356        -1.304439         0.279033
 C         1.489971         0.255504         1.983430
 O         2.049320        -0.569438         3.007767
 H        -1.333019         1.184013         3.230900
 H        -1.895165         1.325698         1.684729
 H        -1.480789        -0.249202         2.240432
 H         0.686370         3.182565         0.925746
 H         1.167692         2.708502         2.526584
 H         3.295572         1.546429         1.184722
 H         0.610600        -1.983581         1.103560
 H        -0.526667        -1.549143        -0.115961
 H         1.147369        -1.646958        -0.488606
 H         1.960285        -0.279901         3.921933
