19
Iteration:  4994
 C        -1.191259         0.697542         2.402875
 C         0.174343         0.930934         1.742046
 C         0.868685         2.234506         1.475651
 C         2.175709         1.497803         1.214978
 O         1.933939         0.755218        -0.087769
 C         0.932849         0.014140         0.669740
 C         0.297163        -1.220343         0.140181
 C         1.526338         0.318918         2.035033
 O         2.074148        -0.475095         3.152576
 H        -1.236869         0.892379         3.439923
 H        -1.972468         1.143221         1.878312
 H        -1.499555        -0.399453         2.314943
 H         0.574818         2.929949         0.640081
 H         1.032249         2.614843         2.544223
 H         3.084394         1.936606         1.065462
 H        -0.358998        -1.043908        -0.669774
 H         1.092298        -2.034440        -0.300957
 H        -0.285309        -1.780816         0.921234
 H         2.595089        -1.169494         2.678565
