19
Iteration:  4501
 C        -1.236681         0.729644         2.374580
 C         0.178024         1.034872         1.719565
 C         0.934182         2.311715         1.457632
 C         2.137532         1.470160         1.215166
 O         1.919755         0.760524        -0.024881
 C         0.936274         0.010171         0.761316
 C         0.394508        -1.358228         0.247555
 C         1.460023         0.343500         2.020075
 O         2.058232        -0.617550         2.915263
 H        -1.401434         1.105163         3.397454
 H        -2.041515         1.177394         1.925927
 H        -1.396874        -0.378816         2.489846
 H         0.564238         3.009112         0.755646
 H         0.979181         2.707486         2.539226
 H         2.931592         2.177961         1.167525
 H        -0.576318        -1.380141        -0.281763
 H         1.226125        -1.735131        -0.532210
 H         0.270585        -2.103778         0.993231
 H         2.709154        -0.127622         3.450917
