19
Iteration:  3096
 C        -1.129572         0.775752         2.362714
 C         0.309144         0.991636         1.839043
 C         0.915366         2.373879         1.465764
 C         2.159587         1.414584         1.107281
 O         1.784427         0.706594        -0.108305
 C         1.002529        -0.130187         0.722378
 C         0.367631        -1.262278         0.135963
 C         1.585338         0.260135         2.024101
 O         1.863785        -0.464692         3.191589
 H        -1.177004         1.076618         3.370869
 H        -1.713432         1.567301         1.770635
 H        -1.520644        -0.260439         2.348311
 H         0.495238         2.935593         0.504452
 H         1.081417         2.841669         2.500075
 H         3.255888         1.835769         1.286390
 H         0.007627        -1.933724         0.905842
 H        -0.453758        -0.914117        -0.551790
 H         1.217567        -1.717143        -0.477413
 H         2.466589        -1.140401         2.838521
