19
Iteration:  1598
 C        -1.080244         0.684558         2.375616
 C         0.257584         1.057322         1.749302
 C         0.865427         2.360844         1.477903
 C         2.252289         1.575100         1.141745
 O         1.778582         0.761379        -0.077964
 C         0.898536         0.063121         0.730898
 C         0.499176        -1.371015         0.286217
 C         1.571013         0.298916         2.028073
 O         1.804124        -0.707577         2.989313
 H        -1.523620         1.493082         2.982387
 H        -1.852758         0.665106         1.552556
 H        -1.280051        -0.260145         2.988362
 H         0.873458         2.799528         0.526104
 H         1.222756         3.123192         2.283734
 H         3.228357         2.051668         1.042037
 H         0.246898        -2.034632         1.061484
 H        -0.115433        -1.280533        -0.533737
 H         1.510467        -1.832823        -0.179817
 H         1.748639        -0.370839         3.922952
