19
Iteration:   817charge 0 multiplicity 1
 C        -1.010341         0.756051         2.461378
 C         0.304329         0.879302         1.800568
 C         0.968460         2.349106         1.403991
 C         2.220204         1.527933         1.197672
 O         1.736347         0.808193        -0.124938
 C         0.853012        -0.005576         0.757820
 C         0.418559        -1.282674         0.039997
 C         1.627529         0.288008         2.096756
 O         1.852509        -0.667014         3.074409
 H        -1.806644         1.210864         1.897371
 H        -1.333241        -0.257620         2.467457
 H        -0.951119         1.118303         3.456636
 H         0.587239         2.925843         0.551999
 H         0.958145         2.948028         2.365810
 H         3.159153         2.254633         1.036330
 H        -0.052712        -1.897857         0.818584
 H        -0.482709        -1.114141        -0.610363
 H         1.212311        -1.913735        -0.364446
 H         1.264945        -0.440495         3.797798
