19
Iteration:  3956charge 0 multiplicity 1
 C        -1.007578         0.653713         2.590593
 C         0.220069         1.012551         1.764284
 C         0.946188         2.385229         1.463232
 C         2.199343         1.486133         1.157202
 O         1.874555         0.726826        -0.086229
 C         0.917460        -0.030015         0.668955
 C         0.378843        -1.253877        -0.003932
 C         1.478278         0.210488         1.985943
 O         1.890090        -0.526162         3.111213
 H        -1.395105         1.255500         3.415096
 H        -1.936066         0.645342         1.983229
 H        -1.172833        -0.416798         2.940310
 H         0.518348         2.823268         0.585892
 H         1.056623         3.136467         2.206987
 H         3.294455         1.725847         1.156011
 H        -0.330292        -1.769400         0.676194
 H        -0.235099        -1.053020        -0.943894
 H         1.166330        -1.951871        -0.124500
 H         1.767504         0.065386         3.895007
