19
Iteration:   639charge 0 multiplicity 1
 C        -1.025214         0.780222         2.546713
 C         0.227265         1.046840         1.668704
 C         0.914249         2.325723         1.426998
 C         2.145245         1.442504         1.042031
 O         1.780514         0.753310        -0.124909
 C         1.020540        -0.088230         0.757895
 C         0.492206        -1.350885         0.137505
 C         1.542022         0.337999         2.069350
 O         1.755777        -0.578213         3.126253
 H        -0.745601         0.388486         3.511404
 H        -1.531186         1.714106         2.588756
 H        -1.662247        -0.012314         2.147922
 H         0.472091         3.139542         0.764898
 H         1.433736         2.669896         2.307609
 H         3.161575         1.841063         0.977035
 H         0.102844        -2.092562         0.763338
 H        -0.155062        -1.113733        -0.677618
 H         1.426257        -1.854932        -0.478205
 H         1.667107        -0.169887         3.987300
