19
Iteration:    75charge 0 multiplicity 1
 C        -1.162428         0.777605         2.519740
 C         0.147915         0.987284         1.697267
 C         0.907937         2.378135         1.390278
 C         2.194168         1.360739         1.212621
 O         1.965973         0.746676        -0.042904
 C         0.859419        -0.027749         0.603708
 C         0.497060        -1.325717         0.295778
 C         1.480502         0.270578         1.916651
 O         1.898874        -0.532084         2.990480
 H        -1.034288         1.261285         3.478651
 H        -2.040358         1.363116         2.131444
 H        -1.447218        -0.207391         2.653482
 H         0.665910         2.886161         0.459762
 H         1.057477         3.007424         2.231679
 H         3.197667         1.670549         1.377432
 H         0.447227        -1.712601         1.223071
 H        -0.394634        -1.658968        -0.376835
 H         1.462191        -1.710059        -0.110760
 H         1.708248        -0.143365         3.834744
