19
Iteration:  1275
 C        -1.088659         0.672495         2.345007
 C         0.224679         0.933816         1.790405
 C         0.918824         2.282216         1.479112
 C         2.103188         1.396476         1.182173
 O         1.886736         0.783529        -0.043770
 C         0.977148        -0.021757         0.720990
 C         0.216252        -1.061619         0.023877
 C         1.628456         0.181051         2.072177
 O         2.056159        -0.601106         3.121979
 H        -1.043243         0.228576         3.386221
 H        -1.709072         1.554649         2.317539
 H        -1.703650         0.064526         1.721871
 H         0.571024         3.072497         0.731714
 H         0.969965         2.761404         2.416083
 H         3.056199         2.044374         1.191812
 H        -0.516686        -1.571888         0.594411
 H        -0.504785        -0.599618        -0.754415
 H         0.888154        -1.661668        -0.484030
 H         1.716298        -0.170902         3.973607
