19
Iteration:  3480
 C        -1.207372         0.656057         2.380754
 C         0.232763         0.918699         1.819574
 C         0.951557         2.246483         1.491193
 C         2.207339         1.474194         1.166357
 O         1.808176         0.744958        -0.081242
 C         0.962412        -0.067223         0.678656
 C         0.262500        -1.167918         0.011202
 C         1.583396         0.192470         2.037837
 O         2.089712        -0.385889         3.212242
 H        -1.559081         1.568198         2.805635
 H        -1.969590         0.524088         1.490759
 H        -1.267482        -0.166634         3.097470
 H         0.867027         2.909193         0.649892
 H         1.097574         2.837589         2.373404
 H         3.222247         1.789703         0.966209
 H        -0.602571        -1.548501         0.636454
 H         0.061808        -0.723284        -0.927302
 H         1.019313        -1.939668        -0.262318
 H         1.417947        -0.784600         3.762306
