19
Iteration:  4738
 C        -1.073658         0.823551         2.474795
 C         0.181221         1.007068         1.727473
 C         0.837109         2.263091         1.428737
 C         2.224758         1.454109         1.166775
 O         1.733141         0.827695        -0.087139
 C         0.879273        -0.041958         0.767606
 C         0.539371        -1.354838         0.112379
 C         1.589109         0.293549         2.077749
 O         1.941493        -0.557415         3.096758
 H        -0.933967         1.012242         3.517172
 H        -1.883633         1.301160         1.958466
 H        -1.289415        -0.169327         2.390477
 H         0.613611         2.803358         0.494046
 H         0.839768         2.938325         2.212118
 H         3.159727         2.061812         1.111859
 H         0.052650        -1.098813        -0.840759
 H         1.498739        -1.953563         0.178714
 H        -0.234459        -1.857569         0.782808
 H         1.808386        -1.447780         2.689291
