19
Iteration:  4265
 C        -1.220920         0.780485         2.148844
 C         0.288896         0.928270         1.836728
 C         0.880973         2.308985         1.556266
 C         2.194836         1.529049         1.144625
 O         1.796747         0.792714        -0.036532
 C         0.852086        -0.052625         0.803364
 C         0.268117        -1.310080         0.264304
 C         1.654726         0.245448         2.004819
 O         2.097994        -0.607622         2.995256
 H        -1.494953         1.354802         3.011967
 H        -1.684804         1.194069         1.242995
 H        -1.581719        -0.180548         2.275382
 H         0.568609         3.008908         0.749859
 H         1.042047         2.788519         2.513274
 H         3.232052         1.846997         1.159101
 H         0.021880        -2.007530         1.071148
 H        -0.506938        -1.085698        -0.426664
 H         1.278977        -1.675769        -0.141965
 H         2.342376        -0.122495         3.806027
