19
Iteration:  1714charge 0 multiplicity 1
 C        -1.100531         0.657516         2.285858
 C         0.196502         0.899202         1.719650
 C         0.912734         2.278104         1.494656
 C         2.197138         1.459808         1.168245
 O         1.869083         0.727595        -0.090927
 C         1.016703        -0.056730         0.737892
 C         0.233399        -1.240852         0.106039
 C         1.480227         0.297485         2.120043
 O         2.065729        -0.386779         3.116041
 H        -1.037009         0.201640         3.321411
 H        -1.772612         1.523789         2.280555
 H        -1.720665        -0.104183         1.794538
 H         0.772695         2.943885         0.598726
 H         0.837660         2.698166         2.435565
 H         3.213427         1.906461         1.362694
 H        -0.416485        -1.748521         0.889478
 H        -0.233075        -0.980373        -0.886398
 H         0.802458        -2.071155        -0.139629
 H         1.927058        -0.111647         4.058533
