19
Iteration:   172
 C        -1.106833         0.696856         2.229650
 C         0.171538         0.950771         1.598770
 C         0.949199         2.264625         1.557789
 C         2.191815         1.454382         1.246450
 O         1.896522         0.664068        -0.024183
 C         0.895516        -0.088676         0.795544
 C         0.110228        -1.241360         0.129914
 C         1.563721         0.202158         2.040200
 O         2.206568        -0.290055         3.122674
 H        -1.566238         1.576456         2.872741
 H        -2.063830         0.500689         1.536126
 H        -1.062875        -0.263112         2.742933
 H         0.666610         2.977969         0.662117
 H         0.856978         2.615010         2.612875
 H         3.145903         1.881974         1.131753
 H        -0.748935        -1.555304         0.605261
 H        -0.143242        -0.875614        -0.986006
 H         0.831301        -2.082840        -0.139542
 H         1.704970        -0.379478         3.918424
