19
Iteration:  4886charge 0 multiplicity 1
 C        -1.154940         0.672905         2.446532
 C         0.172702         0.969099         1.697427
 C         0.912233         2.258813         1.428892
 C         2.206447         1.470516         1.318300
 O         1.869435         0.784114        -0.066814
 C         0.859723        -0.035867         0.676572
 C         0.305999        -1.262794         0.056090
 C         1.569981         0.250829         2.022681
 O         2.060739        -0.427339         3.129636
 H        -1.249417         1.391787         3.222626
 H        -2.038465         0.790874         1.858218
 H        -1.087057        -0.375283         2.806759
 H         0.598756         2.817740         0.633750
 H         0.877747         2.996312         2.255198
 H         3.180791         1.933091         1.380265
 H        -0.247569        -1.089109        -0.835090
 H         1.090696        -1.935367        -0.170258
 H        -0.380712        -1.590699         0.883727
 H         2.465228        -1.279772         2.913601
