19
Iteration:  1737
 C        -1.207972         0.650197         2.408070
 C         0.221798         0.958640         1.698843
 C         0.885378         2.348984         1.507740
 C         2.206866         1.487142         1.138155
 O         1.944390         0.759567        -0.043779
 C         0.933730         0.004519         0.679044
 C         0.355171        -1.320306         0.190214
 C         1.633741         0.186427         1.941489
 O         1.908298        -0.448936         3.066542
 H        -0.799691         0.356877         3.356220
 H        -1.719903         1.625422         2.570187
 H        -1.990642        -0.105360         2.159217
 H         0.526026         2.887796         0.620933
 H         1.071575         2.954136         2.339444
 H         3.230229         1.838539         1.322771
 H        -0.245675        -1.722752         1.020162
 H        -0.174758        -1.208584        -0.737828
 H         1.080161        -2.118536         0.032737
 H         1.596981        -0.021397         3.889105
