19
Iteration:  3059
 C        -1.152837         0.753303         2.232775
 C         0.238612         0.920193         1.720404
 C         0.906249         2.309774         1.460475
 C         2.204366         1.364161         1.271110
 O         1.924584         0.726303        -0.018392
 C         0.883341        -0.055001         0.711384
 C         0.129247        -1.240106         0.110641
 C         1.524265         0.237125         2.044676
 O         2.122313        -0.434328         3.159464
 H        -1.251385         1.512882         3.122593
 H        -1.990661         0.920054         1.526382
 H        -1.380354        -0.250641         2.644728
 H         0.719132         3.081436         0.692073
 H         0.970971         2.935657         2.380815
 H         3.174608         1.737776         1.422595
 H        -0.396486        -1.838077         0.953049
 H        -0.692365        -0.912754        -0.655543
 H         0.803031        -1.969342        -0.400372
 H         3.055872        -0.123064         3.152756
