19
Iteration:  3183
 C        -1.154122         0.789542         2.336088
 C         0.264984         0.957817         1.800387
 C         0.940081         2.307071         1.447168
 C         2.170125         1.481871         1.158392
 O         1.849606         0.747314        -0.124791
 C         0.882062        -0.007572         0.680453
 C         0.284096        -1.281113         0.159074
 C         1.622186         0.247261         2.054745
 O         1.958992        -0.566418         3.203759
 H        -1.252984         1.295900         3.294886
 H        -1.834867         1.230365         1.519411
 H        -1.390420        -0.186805         2.672333
 H         0.481634         2.827001         0.584915
 H         1.062764         2.854218         2.363493
 H         3.167080         2.039843         1.159305
 H        -0.604757        -1.610161         0.711133
 H        -0.045619        -1.003901        -0.890491
 H         1.014580        -2.180206         0.093153
 H         2.906723        -0.857039         3.305732
