19
Iteration:   626charge 0 multiplicity 1
 C        -0.980580         0.744785         2.478564
 C         0.218278         0.997452         1.727323
 C         0.997887         2.302893         1.364493
 C         2.224791         1.550370         1.006075
 O         1.714346         0.698008        -0.045150
 C         0.912488        -0.069002         0.821414
 C         0.520235        -1.301507         0.063976
 C         1.547716         0.327560         2.113713
 O         1.773541        -0.607215         3.135477
 H        -0.695031         0.462911         3.483130
 H        -1.665100         1.594945         2.660898
 H        -1.709958         0.025979         1.976725
 H         0.725117         2.955399         0.500893
 H         0.996162         2.963174         2.260014
 H         3.039398         2.155435         0.710658
 H        -0.037564        -2.020300         0.784053
 H        -0.232690        -0.986855        -0.628375
 H         1.412204        -1.831549        -0.400584
 H         1.621730        -0.166941         4.010046
