19
Iteration:  4561charge 0 multiplicity 1
 C        -1.156889         0.669661         2.453215
 C         0.211807         0.965885         1.780002
 C         0.897077         2.399941         1.505978
 C         2.160644         1.502035         1.061536
 O         1.785704         0.745869        -0.069717
 C         0.944865        -0.049772         0.732227
 C         0.405101        -1.317825         0.082349
 C         1.665382         0.327212         2.027263
 O         2.002654        -0.589290         3.089164
 H        -1.021649         1.046368         3.457642
 H        -1.962595         1.293211         1.899403
 H        -1.460552        -0.353396         2.450649
 H         0.344453         3.114121         0.845931
 H         1.012820         2.814154         2.455451
 H         3.109040         2.075848         0.845811
 H         0.430578        -1.199699        -1.010253
 H         1.103840        -2.020110         0.316197
 H        -0.564311        -1.724310         0.580348
 H         1.420863        -0.277900         3.842879
