19
Iteration:  2865
 C        -1.318931         0.662692         2.256432
 C         0.109165         1.017986         1.753716
 C         1.043045         2.366259         1.523551
 C         2.238131         1.359616         1.163583
 O         1.870259         0.650682        -0.055576
 C         0.906649        -0.068494         0.708957
 C         0.262437        -1.199110         0.128676
 C         1.521207         0.292475         2.109672
 O         2.159760        -0.373607         3.132074
 H        -1.237895         0.720052         3.334725
 H        -2.097124         1.416810         1.966835
 H        -1.633276        -0.343128         1.977599
 H         0.717693         2.989202         0.745736
 H         1.202721         2.923890         2.482834
 H         3.407962         1.762533         1.316954
 H        -0.282023        -1.680962         0.966318
 H        -0.429738        -0.950703        -0.587647
 H         0.925798        -1.954738        -0.201419
 H         2.367047        -1.244311         2.752479
