19
Iteration:  1373charge 0 multiplicity 1
 C        -1.093396         0.872417         2.357768
 C         0.249637         0.989322         1.789596
 C         0.856773         2.305528         1.569288
 C         2.170492         1.465339         1.217920
 O         1.817278         0.821616        -0.104977
 C         0.946241        -0.025770         0.682340
 C         0.460014        -1.283915         0.176098
 C         1.564581         0.233836         2.027269
 O         1.918221        -0.745200         2.982017
 H        -1.462784        -0.227550         2.306457
 H        -1.294256         1.108121         3.413933
 H        -1.769266         1.508962         1.799124
 H         0.626412         3.073985         0.729812
 H         0.963481         3.025425         2.366495
 H         3.097461         2.108450         1.129839
 H        -0.155545        -1.754036         0.937232
 H        -0.234028        -1.169170        -0.745413
 H         1.356776        -1.772872        -0.084899
 H         1.809212        -0.570998         3.974355
