19
Iteration:  3373
 C        -1.217856         0.795821         2.342562
 C         0.223678         0.930838         1.761194
 C         0.933994         2.265375         1.491305
 C         2.217528         1.526245         1.172072
 O         1.878172         0.779033        -0.107874
 C         0.911482        -0.056655         0.775431
 C         0.389650        -1.296182         0.209941
 C         1.519285         0.324161         2.017121
 O         1.985228        -0.556307         3.104787
 H        -1.166437         1.094630         3.423941
 H        -1.888690         1.499621         1.833039
 H        -1.722421        -0.278207         2.207973
 H         0.674775         2.876029         0.548184
 H         0.946288         2.895818         2.476699
 H         3.169572         2.026924         1.185735
 H        -0.219982        -1.896156         1.028849
 H        -0.303382        -1.062875        -0.639878
 H         1.151447        -2.067039        -0.142977
 H         2.370242        -1.280649         2.606171
