19
Iteration:  2860
 C        -1.304930         0.672449         2.242383
 C         0.133368         1.031476         1.773935
 C         1.002892         2.335413         1.513665
 C         2.266720         1.376897         1.202617
 O         1.882761         0.654835        -0.074305
 C         0.888878        -0.035210         0.720380
 C         0.246913        -1.205788         0.147855
 C         1.489046         0.287881         2.077353
 O         2.187401        -0.372475         3.162814
 H        -1.340451         0.648712         3.376078
 H        -2.103240         1.319015         1.924011
 H        -1.472148        -0.383496         1.954072
 H         0.677446         2.989307         0.617458
 H         1.321728         2.860385         2.410123
 H         3.248299         1.502899         1.266509
 H        -0.388400        -1.665561         0.904603
 H        -0.522686        -0.921171        -0.703733
 H         0.977221        -1.952752        -0.308261
 H         2.368729        -1.220270         2.722516
