19
Iteration:  3472charge 0 multiplicity 1
 C        -1.207426         0.688132         2.332458
 C         0.232373         0.855704         1.728994
 C         0.972991         2.285957         1.493807
 C         2.169054         1.401175         1.157874
 O         1.824488         0.756249        -0.002659
 C         0.905384        -0.049609         0.750501
 C         0.283896        -1.155903        -0.009382
 C         1.630317         0.197371         2.023724
 O         2.120614        -0.348632         3.179936
 H        -1.391737         1.580922         2.923920
 H        -1.875383         0.350968         1.574161
 H        -1.350345        -0.129677         3.155331
 H         0.549753         2.979316         0.764292
 H         1.102317         2.720183         2.432791
 H         3.186948         1.784759         1.173084
 H        -0.716871        -1.458100         0.473560
 H        -0.217491        -0.826358        -0.975220
 H         0.892208        -2.088519        -0.000929
 H         1.429939        -0.861332         3.619068
