19
Iteration:   872
 C        -1.116534         0.651524         2.470034
 C         0.172683         1.033965         1.730011
 C         0.967222         2.375289         1.547349
 C         2.237459         1.431355         1.191759
 O         1.919301         0.770200        -0.000964
 C         0.902325        -0.066247         0.707164
 C         0.274389        -1.265079         0.052155
 C         1.488928         0.243432         1.982576
 O         1.954707        -0.548086         2.959544
 H        -1.895183         0.095992         1.949710
 H        -0.798386         0.100464         3.347825
 H        -1.597570         1.535794         2.840776
 H         0.538830         3.091379         0.860423
 H         1.120754         2.850651         2.570633
 H         3.350359         1.831113         1.270982
 H        -0.252856        -1.786405         0.878220
 H        -0.404518        -1.133266        -0.826904
 H         1.067829        -1.876438        -0.281951
 H         2.324926         0.125723         3.581970
