19
Iteration:  1092charge 0 multiplicity 1
 C        -1.154377         0.733224         2.283928
 C         0.295024         0.948980         1.923908
 C         0.955724         2.311036         1.616329
 C         2.208209         1.399171         1.207360
 O         1.711236         0.813867        -0.064692
 C         0.961080        -0.066714         0.748809
 C         0.214366        -1.146343        -0.077969
 C         1.677986         0.242245         2.022175
 O         2.052967        -0.640193         3.048741
 H        -1.405931         1.686376         2.763131
 H        -1.851621         0.491986         1.458005
 H        -1.260670         0.000570         3.086729
 H         0.505863         3.100689         1.074791
 H         1.109274         2.759326         2.606147
 H         3.238282         1.797672         1.095101
 H        -0.590026        -1.647685         0.532420
 H        -0.138800        -0.738217        -0.959751
 H         0.831878        -1.931755        -0.229988
 H         1.999855        -0.121942         3.842584
