19
Iteration:  3348
 C        -1.118632         0.839939         2.396126
 C         0.227727         0.999820         1.698732
 C         0.873747         2.316421         1.553669
 C         2.205712         1.407274         1.190711
 O         1.902337         0.758986        -0.067188
 C         0.854582        -0.031123         0.661307
 C         0.424643        -1.313854         0.196660
 C         1.490691         0.274274         1.953874
 O         1.904689        -0.548078         3.076508
 H        -1.102006         0.984003         3.413978
 H        -2.005438         1.476348         2.014431
 H        -1.328636        -0.192901         2.150266
 H         0.461768         2.934924         0.820026
 H         0.933610         2.729112         2.459181
 H         3.279392         1.735120         1.275257
 H         0.259583        -1.849908         1.179816
 H        -0.448182        -1.413845        -0.412868
 H         1.213186        -1.973226        -0.296818
 H         2.872838        -0.471468         3.140151
