19
Iteration:  1174charge 0 multiplicity 1
 C        -1.135401         0.779687         2.384802
 C         0.160030         1.021934         1.785538
 C         0.933621         2.353536         1.585292
 C         2.208114         1.470642         1.236078
 O         1.889283         0.790511        -0.088671
 C         0.936793         0.052575         0.723008
 C         0.350469        -1.169052         0.141204
 C         1.521329         0.209343         2.038828
 O         1.980755        -0.794238         2.925363
 H        -1.583682         1.516368         3.083796
 H        -1.837690         0.692880         1.524262
 H        -1.062128        -0.217957         2.879668
 H         0.678787         2.891358         0.630859
 H         0.910133         2.847863         2.540392
 H         3.228853         1.772048         1.158195
 H        -0.078599        -1.617015         0.985657
 H        -0.471615        -0.980739        -0.604270
 H         1.073864        -1.888452        -0.396078
 H         2.081542        -0.343228         3.777515
