19
Iteration:  2513
 C        -1.099520         0.829496         2.448110
 C         0.178284         0.983191         1.751223
 C         0.937219         2.277261         1.525835
 C         2.187631         1.458013         1.150183
 O         1.856232         0.692280        -0.090233
 C         0.888618         0.009410         0.678997
 C         0.376013        -1.248481         0.106732
 C         1.489852         0.223660         2.057096
 O         1.998374        -0.579553         3.036790
 H        -1.813115         1.700803         2.396630
 H        -1.628387         0.096894         1.922028
 H        -0.934457         0.599010         3.472510
 H         0.528686         3.074855         0.860687
 H         1.066400         2.614753         2.561561
 H         3.233546         1.958549         1.261672
 H        -0.176921        -1.864944         0.676686
 H        -0.030450        -1.101516        -0.868333
 H         1.170461        -1.858391        -0.265030
 H         1.969550        -0.177649         3.921723
