19
Iteration:   355charge 0 multiplicity 1
 C        -1.248007         0.727836         2.210517
 C         0.173390         0.934513         1.845113
 C         0.867898         2.339834         1.499195
 C         2.152355         1.440932         1.199981
 O         1.865434         0.682535        -0.047709
 C         1.025104        -0.146283         0.741403
 C         0.225972        -1.219247         0.084333
 C         1.601068         0.253896         2.099031
 O         2.236182        -0.385026         3.107847
 H        -1.521681         1.627281         2.840919
 H        -1.919322         0.682123         1.333371
 H        -1.361674        -0.151689         2.876483
 H         0.487868         2.759066         0.570052
 H         0.900871         3.112920         2.245933
 H         3.151118         1.918861         1.264298
 H        -0.604629        -1.463479         0.764795
 H        -0.239207        -0.858773        -0.874781
 H         0.807790        -2.193260        -0.161863
 H         1.673642        -0.927807         3.738020
