19
Iteration:  1358
 C        -1.180283         0.797241         2.351092
 C         0.205610         0.944947         1.774875
 C         0.969059         2.313588         1.554424
 C         2.215912         1.505621         1.211916
 O         1.853950         0.818343         0.001501
 C         0.937959         0.017343         0.729293
 C         0.363976        -1.302274         0.126752
 C         1.524904         0.265054         2.003148
 O         1.995310        -0.659559         2.913835
 H        -1.539245        -0.211604         2.573023
 H        -1.102895         1.414989         3.272994
 H        -1.952001         1.109421         1.584404
 H         0.431934         2.917305         0.780135
 H         1.041206         2.792993         2.618914
 H         3.241552         1.707881         1.417870
 H        -0.244782        -1.810096         0.885799
 H        -0.144584        -1.139232        -0.813551
 H         1.071321        -2.286247        -0.040319
 H         1.725803        -0.291003         3.759343
