19
Iteration:   383
 C        -1.132174         0.644212         2.310545
 C         0.140016         0.900115         1.680890
 C         0.933986         2.273296         1.476640
 C         2.207904         1.341108         1.206871
 O         1.869715         0.721460        -0.029263
 C         0.891226        -0.035642         0.667396
 C         0.245073        -1.212954         0.034040
 C         1.527420         0.311308         2.111330
 O         2.134736        -0.364955         3.139814
 H        -1.317475         1.600968         2.700247
 H        -1.945299         0.216150         1.708408
 H        -0.957866         0.050610         3.226760
 H         0.603909         3.009046         0.699463
 H         0.979557         2.744634         2.519214
 H         3.207454         1.891335         1.382587
 H        -0.565212        -1.621451         0.739098
 H        -0.214041        -1.036432        -0.929762
 H         0.960600        -1.951360        -0.044681
 H         1.978749        -0.023521         4.081905
