19
Iteration:  3439
 C        -1.231073         0.690504         2.305823
 C         0.178881         0.900089         1.762361
 C         1.009145         2.402449         1.549591
 C         2.110798         1.434852         1.240417
 O         1.921434         0.707798        -0.031335
 C         0.942176        -0.083617         0.686182
 C         0.222178        -1.212685         0.056627
 C         1.501964         0.167152         2.040519
 O         2.205199        -0.339485         3.091272
 H        -1.628447         1.536207         2.860343
 H        -2.000177         0.677664         1.565757
 H        -1.259785        -0.301026         2.917591
 H         0.592617         3.094271         0.815480
 H         1.060943         2.859205         2.514199
 H         3.114938         1.817749         1.320653
 H        -0.779381        -1.329282         0.616551
 H         0.107931        -1.128769        -1.069511
 H         0.677525        -2.241858         0.101909
 H         1.850692        -1.212735         3.410866
