19
Iteration:  2181
 C        -1.047007         0.781612         2.491940
 C         0.254722         0.983047         1.767271
 C         0.903861         2.331962         1.455189
 C         2.177352         1.503682         1.146853
 O         1.880314         0.803416        -0.038543
 C         0.907876        -0.000666         0.630815
 C         0.381600        -1.257756         0.168505
 C         1.578877         0.205990         1.970423
 O         1.821493        -0.678226         3.005569
 H        -1.673700         1.605103         2.614019
 H        -1.534161        -0.097698         2.020651
 H        -0.823294         0.421173         3.531031
 H         0.491933         2.954830         0.633243
 H         1.010777         2.875973         2.418540
 H         3.042623         2.051886         1.288202
 H         0.037192        -1.790585         1.150405
 H        -0.334405        -1.363657        -0.745507
 H         1.268247        -1.869279        -0.047805
 H         1.952038        -0.125773         3.791273
