19
Iteration:   571
 C        -1.208979         0.703883         2.315233
 C         0.144421         0.942086         1.568237
 C         0.869064         2.351957         1.455536
 C         2.218286         1.439469         1.249567
 O         1.925907         0.693867         0.013445
 C         0.961781        -0.116399         0.764065
 C         0.178316        -1.248577         0.231653
 C         1.633157         0.298753         2.008379
 O         2.166592        -0.471222         3.012215
 H        -1.115446         0.413475         3.344158
 H        -1.695225         1.704728         2.201795
 H        -1.976013        -0.093671         1.964426
 H         0.597640         3.191697         0.771204
 H         0.954449         2.724967         2.521388
 H         3.185940         1.903598         1.262719
 H        -0.632261        -1.592874         1.066988
 H        -0.414294        -0.941222        -0.639858
 H         0.853177        -2.115897        -0.125303
 H         1.782196         0.025803         3.812510
