19
Iteration:  4350
 C        -1.065156         0.767091         2.517348
 C         0.238348         0.933369         1.774158
 C         0.794457         2.276682         1.338856
 C         2.138381         1.584205         1.111147
 O         1.962461         0.720969        -0.089495
 C         1.039800        -0.076643         0.742578
 C         0.378463        -1.193084         0.072994
 C         1.606428         0.248549         2.077357
 O         1.826791        -0.640199         3.121338
 H        -0.817393         1.120335         3.542031
 H        -1.990533         1.356053         2.160006
 H        -1.395817        -0.317581         2.690338
 H         0.563940         2.743158         0.338448
 H         0.909126         2.993854         2.232489
 H         3.042000         2.159572         1.026066
 H        -0.080022        -1.918929         0.732843
 H        -0.551119        -0.791396        -0.475720
 H         0.954174        -1.663636        -0.656017
 H         1.731352        -0.222588         3.993705
