19
Iteration:   101
 C        -1.111435         0.755387         2.329755
 C         0.172745         0.967320         1.668615
 C         0.870710         2.316318         1.413479
 C         2.219591         1.461514         1.192552
 O         1.921668         0.767947        -0.066007
 C         0.918600        -0.118729         0.788897
 C         0.292455        -1.347341         0.214650
 C         1.514471         0.386671         2.057307
 O         2.019067        -0.544756         3.051239
 H        -1.143503         1.293578         3.252522
 H        -1.916783         1.137844         1.770153
 H        -1.327055        -0.328311         2.496138
 H         0.540314         2.860412         0.545785
 H         0.879486         2.821884         2.399548
 H         3.265613         1.893621         1.293645
 H        -0.324397        -1.840466         1.037988
 H        -0.305538        -1.047411        -0.551090
 H         1.043927        -1.993412        -0.174428
 H         2.270812        -0.181249         3.886577
