19
Iteration:   183charge 0 multiplicity 1
 C        -1.142190         0.699591         2.300931
 C         0.158306         0.969506         1.580251
 C         0.892279         2.267880         1.535006
 C         2.154162         1.389151         1.194976
 O         1.929238         0.646750        -0.035977
 C         0.933421        -0.107900         0.691067
 C         0.196054        -1.227796         0.114759
 C         1.540170         0.300858         2.043504
 O         2.174351        -0.323909         3.151545
 H        -1.189877         1.540752         3.102266
 H        -2.079609         0.607421         1.594895
 H        -1.034104        -0.141646         2.981226
 H         0.494121         3.247629         1.036389
 H         1.195018         2.652667         2.539549
 H         3.169976         1.660713         1.345492
 H        -0.585446        -1.561710         0.713126
 H        -0.296903        -0.809289        -0.880097
 H         0.865162        -2.129932        -0.020606
 H         1.586561        -0.484565         3.915667
