19
Iteration:    16
 C        -1.126082         0.853017         2.335985
 C         0.284422         0.960530         1.813692
 C         0.909406         2.153575         1.442280
 C         2.207217         1.547886         1.063326
 O         1.824047         0.792492        -0.174513
 C         0.914790        -0.000807         0.724785
 C         0.438237        -1.316486         0.167024
 C         1.610021         0.294912         2.115968
 O         1.830021        -0.639781         3.181811
 H        -1.234971         1.291254         3.415873
 H        -1.847565         1.237325         1.584698
 H        -1.384092        -0.304825         2.529543
 H         0.458417         2.774853         0.567908
 H         1.067538         2.995006         2.224866
 H         3.082533         2.245610         0.935586
 H         0.057755        -2.020472         1.107897
 H        -0.239942        -1.417900        -0.688593
 H         1.402277        -1.824742        -0.084829
 H         1.871075        -0.092704         4.039763
