19
Iteration:  2293charge 0 multiplicity 1
 C        -1.164898         0.677284         2.284233
 C         0.218610         0.992583         1.719714
 C         0.926736         2.254820         1.510803
 C         2.215147         1.424405         1.182672
 O         1.919617         0.680512        -0.005987
 C         0.858749         0.037102         0.648849
 C         0.176998        -1.226742         0.144868
 C         1.539292         0.337513         2.112278
 O         2.136315        -0.534099         3.043405
 H        -1.207880         1.146602         3.357526
 H        -1.996197         0.970176         1.677733
 H        -1.308682        -0.401079         2.370701
 H         0.517272         2.989322         0.724159
 H         1.133321         2.830556         2.456840
 H         3.198188         2.024964         1.356272
 H        -0.422768        -1.643323         0.968114
 H        -0.752620        -1.092084        -0.614365
 H         0.932132        -1.956962        -0.253977
 H         2.330631         0.063527         3.822327
