19
Iteration:  1138
 C        -1.264054         0.746382         2.287193
 C         0.221517         0.968409         1.733127
 C         0.949383         2.245886         1.617626
 C         2.225846         1.485767         1.326606
 O         1.891705         0.766723        -0.011548
 C         0.932379        -0.019267         0.721694
 C         0.162443        -1.121407         0.098748
 C         1.557138         0.246504         2.047206
 O         2.189465        -0.664089         2.883145
 H        -1.780008         1.635788         2.655102
 H        -1.789581         0.214631         1.424561
 H        -1.274428        -0.081777         3.079551
 H         0.610399         3.009501         0.871986
 H         1.051875         3.039462         2.395324
 H         3.274530         1.632481         1.418591
 H        -0.717651        -1.347959         0.786653
 H        -0.274081        -0.577442        -0.669610
 H         0.560222        -2.159435         0.001716
 H         2.194480        -0.397701         3.807390
