19
Iteration:  4263
 C        -1.202825         0.797752         2.136787
 C         0.292065         0.907145         1.856377
 C         0.859408         2.316260         1.535786
 C         2.205654         1.519287         1.135959
 O         1.799208         0.782173        -0.007275
 C         0.843058        -0.032398         0.792399
 C         0.273279        -1.303588         0.252819
 C         1.653804         0.241328         2.020217
 O         2.106195        -0.609287         2.987823
 H        -1.445942         1.318734         2.999618
 H        -1.709584         1.160621         1.216420
 H        -1.551886        -0.217552         2.307253
 H         0.530897         3.017872         0.726887
 H         0.959959         2.746007         2.576520
 H         3.215095         1.874280         1.113912
 H         0.000275        -1.922798         1.080519
 H        -0.526419        -1.081607        -0.441530
 H         1.180835        -1.685904        -0.091142
 H         2.326783        -0.088317         3.767138
