19
Iteration:  3968
 C        -1.105366         0.642470         2.528482
 C         0.238157         0.933513         1.810124
 C         0.949905         2.320865         1.377524
 C         2.205538         1.489271         1.161642
 O         1.848980         0.767367         0.009273
 C         0.868663        -0.041506         0.722900
 C         0.342190        -1.265551         0.031653
 C         1.630189         0.299635         2.014152
 O         1.871039        -0.552323         3.034090
 H        -1.115323         1.503853         3.220173
 H        -1.877051         0.678555         1.801179
 H        -0.922330        -0.265897         3.118281
 H         0.636054         2.829953         0.470112
 H         1.124639         2.991260         2.186546
 H         3.165434         2.051444         1.225390
 H        -0.404822        -1.802375         0.657051
 H        -0.127584        -0.859368        -0.875156
 H         1.093722        -1.890798        -0.349881
 H         1.909128         0.014948         3.804154
