19
Iteration:  4146charge 0 multiplicity 1
 C        -0.976025         0.649381         2.500617
 C         0.235413         0.979712         1.721675
 C         0.906375         2.365380         1.524637
 C         2.180553         1.443437         1.087509
 O         1.824268         0.733622        -0.105175
 C         0.945662        -0.028055         0.685930
 C         0.338763        -1.231722         0.069362
 C         1.583016         0.253547         1.950639
 O         1.862332        -0.498528         3.189085
 H        -0.813653         1.121499         3.557444
 H        -1.817692         1.052031         1.884326
 H        -1.135729        -0.414349         2.575076
 H         0.531773         2.925368         0.674145
 H         1.133791         2.942037         2.367053
 H         3.236888         1.686633         1.081686
 H        -0.302504        -1.790329         0.773913
 H        -0.234816        -1.052695        -0.804695
 H         1.154782        -2.053713        -0.058977
 H         1.252825        -0.114500         3.828677
