19
Iteration:  1935charge 0 multiplicity 1
 C        -1.166636         0.771643         2.531793
 C         0.239056         0.916348         1.798566
 C         0.869068         2.320611         1.475768
 C         2.240727         1.437188         1.194001
 O         1.874069         0.792038         0.006113
 C         0.979186        -0.063004         0.592869
 C         0.360858        -1.307563         0.060170
 C         1.605684         0.311994         1.964361
 O         1.907242        -0.562898         3.015515
 H        -1.695059         1.679905         2.541592
 H        -1.792071         0.093904         1.995594
 H        -1.025246         0.418883         3.576066
 H         0.636261         2.982956         0.616787
 H         0.935483         2.860039         2.426797
 H         3.226239         1.933113         1.158722
 H        -0.015187        -1.865228         0.877851
 H        -0.460428        -1.112016        -0.598439
 H         1.207951        -1.954783        -0.455603
 H         1.506896        -0.110465         3.808473
