19
Iteration:  2892charge 0 multiplicity 1
 C        -1.078159         0.868383         2.295845
 C         0.237280         0.943592         1.750783
 C         0.864054         2.244418         1.516526
 C         2.234435         1.491158         1.173993
 O         1.833107         0.747197        -0.089505
 C         0.906280        -0.060005         0.716957
 C         0.323222        -1.334534         0.180397
 C         1.575390         0.277513         2.027081
 O         1.956774        -0.487496         3.163936
 H        -1.008596         0.800048         3.420068
 H        -1.740620         1.688556         2.024785
 H        -1.554436        -0.073211         1.877424
 H         0.273072         2.960154         0.789370
 H         0.970773         2.855064         2.427701
 H         3.224668         1.868108         1.281724
 H        -0.204098        -1.934760         0.930837
 H        -0.408580        -1.005192        -0.695377
 H         1.136419        -2.035363        -0.234370
 H         2.480009        -1.198265         2.762563
