19
Iteration:  4549charge 0 multiplicity 1
 C        -1.088041         0.728897         2.422901
 C         0.259333         0.969362         1.766967
 C         0.885199         2.285003         1.549660
 C         2.192239         1.616192         1.073831
 O         1.747189         0.818620        -0.071408
 C         0.922075        -0.047205         0.765222
 C         0.455923        -1.409179         0.119809
 C         1.605185         0.252421         2.021595
 O         1.926993        -0.567641         3.042517
 H        -1.237649         0.977391         3.467310
 H        -1.898873         1.343193         1.924743
 H        -1.351617        -0.295890         2.372111
 H         0.508753         2.903148         0.711959
 H         1.126907         2.848961         2.369757
 H         3.219208         2.074594         0.955785
 H         0.099297        -1.287479        -0.924628
 H         1.170779        -2.163351         0.128828
 H        -0.547428        -1.783740         0.601323
 H         1.897050        -0.135766         3.921665
