19
Iteration:  1815charge 0 multiplicity 1
 C        -1.176450         0.820036         2.391799
 C         0.160401         0.993944         1.698316
 C         0.859539         2.337464         1.545064
 C         2.140974         1.442047         1.227674
 O         1.895394         0.716645        -0.086172
 C         1.022222        -0.052235         0.685415
 C         0.423906        -1.308067         0.218101
 C         1.486582         0.229521         2.000375
 O         2.019096        -0.533584         2.992459
 H        -1.221304         0.801345         3.466705
 H        -1.695392         1.760094         2.130492
 H        -1.744502        -0.092209         2.051554
 H         0.604922         2.858824         0.661553
 H         0.817247         2.940753         2.427140
 H         3.170687         1.686540         1.174074
 H         0.001124        -1.914344         0.960617
 H        -0.262096        -1.145315        -0.524946
 H         1.268711        -1.912595        -0.236146
 H         1.982975        -0.224923         3.889552
