19
Iteration:   115
 C        -1.149692         0.720126         2.213570
 C         0.286691         0.928222         1.749493
 C         0.845322         2.310574         1.417720
 C         2.159378         1.524743         1.094145
 O         1.836728         0.671253         0.014803
 C         0.963033        -0.056527         0.843278
 C         0.224993        -1.267598         0.156175
 C         1.708051         0.329705         2.144929
 O         2.031125        -0.538474         3.077559
 H        -1.370505         1.371312         3.152991
 H        -1.845242         1.067681         1.380131
 H        -1.413692        -0.346885         2.544080
 H         0.373600         3.072903         0.686950
 H         0.972313         2.967030         2.335894
 H         3.141915         1.956007         0.953269
 H        -0.565237        -1.859177         0.757838
 H        -0.275583        -0.941904        -0.791807
 H         0.955647        -2.070703        -0.105835
 H         2.252339         0.023851         3.890295
