19
Iteration:  2509
 C        -1.133293         0.842934         2.416714
 C         0.193698         0.984065         1.788045
 C         0.967719         2.304085         1.514855
 C         2.154718         1.441607         1.147959
 O         1.865560         0.683816        -0.077422
 C         0.902140        -0.005863         0.657776
 C         0.355267        -1.258603         0.103805
 C         1.465300         0.232173         2.083849
 O         2.045965        -0.562100         3.017436
 H        -1.846782         1.659831         2.495245
 H        -1.586840        -0.031714         1.817225
 H        -0.964578         0.463479         3.473168
 H         0.656365         3.169133         0.953033
 H         0.989711         2.564487         2.572348
 H         3.217255         1.982827         1.350348
 H        -0.426374        -1.898188         0.698360
 H        -0.088479        -1.108355        -0.907414
 H         1.248681        -1.837278        -0.243786
 H         1.909032        -0.158030         3.897116
