19
Iteration:  3841charge 0 multiplicity 1
 C        -1.279994         0.770710         2.208624
 C         0.191028         0.937925         1.765643
 C         0.901178         2.258803         1.490924
 C         2.153198         1.404437         1.211936
 O         1.906349         0.764134        -0.005773
 C         0.919996         0.056842         0.749807
 C         0.305661        -1.251319         0.241083
 C         1.458153         0.262199         2.150176
 O         2.199886        -0.578071         2.918712
 H        -1.096032         0.646394         3.306122
 H        -1.808747         1.735824         1.893413
 H        -1.624393        -0.051086         1.587011
 H         0.449510         2.791681         0.675551
 H         0.972844         2.966825         2.346884
 H         3.190272         1.718437         1.177096
 H         0.000564        -1.793559         1.222831
 H        -0.618349        -1.028126        -0.238250
 H         1.022193        -1.978455        -0.310434
 H         2.583857        -0.022009         3.621721
