19
Iteration:   846
 C        -1.046539         0.730553         2.531611
 C         0.190605         0.948954         1.729048
 C         0.934660         2.341179         1.544422
 C         2.234703         1.433251         1.190584
 O         1.899901         0.796030        -0.164709
 C         0.898010        -0.025726         0.664220
 C         0.407864        -1.262701         0.096004
 C         1.515806         0.255060         2.021615
 O         1.823983        -0.589661         3.014627
 H        -2.072449         0.541761         2.063496
 H        -0.791615        -0.210771         3.129117
 H        -1.144906         1.571604         3.321291
 H         0.493018         3.072951         0.816662
 H         1.100608         2.719965         2.521851
 H         3.177719         1.937569         1.269127
 H        -0.013867        -1.752783         0.923614
 H        -0.410414        -1.103947        -0.611882
 H         1.204360        -1.916695        -0.469272
 H         1.808563         0.030679         3.803158
