19
Iteration:    46
 C        -1.052561         0.896350         2.418862
 C         0.235489         1.029733         1.685658
 C         0.917736         2.351590         1.435418
 C         2.156966         1.572368         1.109588
 O         1.735819         0.706385        -0.070959
 C         1.010897        -0.129211         0.772655
 C         0.587248        -1.429647         0.226139
 C         1.575107         0.338852         2.066231
 O         1.741595        -0.654360         3.003077
 H        -0.983009         1.198097         3.487191
 H        -1.881243         1.420911         1.986627
 H        -1.320372        -0.216989         2.504666
 H         0.618593         3.099429         0.693332
 H         1.106702         2.967694         2.363079
 H         3.118645         2.138328         0.930003
 H         0.398406        -2.183127         1.102396
 H        -0.198371        -1.419235        -0.443642
 H         1.486134        -1.776309        -0.268269
 H         1.393389        -0.384517         3.857152
