19
Iteration:  3349charge 0 multiplicity 1
 C        -1.126945         0.847381         2.400442
 C         0.233927         0.990322         1.698812
 C         0.875092         2.308830         1.546764
 C         2.199208         1.398624         1.195215
 O         1.902034         0.757144        -0.060849
 C         0.860940        -0.023920         0.660399
 C         0.422998        -1.307653         0.196732
 C         1.494534         0.278882         1.950458
 O         1.905768        -0.542608         3.069431
 H        -1.100974         0.971779         3.429259
 H        -2.001761         1.458489         1.989407
 H        -1.359545        -0.227187         2.127931
 H         0.409998         2.952830         0.803352
 H         0.966139         2.758370         2.495356
 H         3.259779         1.726601         1.258686
 H         0.251952        -1.844010         1.218224
 H        -0.454891        -1.397391        -0.416725
 H         1.246301        -1.967636        -0.278848
 H         2.891493        -0.527888         3.155371
