19
Iteration:  4936charge 0 multiplicity 1
 C        -1.169958         0.726312         2.511713
 C         0.208891         0.935172         1.752852
 C         0.901185         2.300409         1.545877
 C         2.208058         1.578958         0.938672
 O         1.839755         0.781472        -0.099342
 C         0.925781        -0.012693         0.689526
 C         0.500282        -1.276709         0.204350
 C         1.575319         0.230901         2.029415
 O         1.811891        -0.579880         3.124217
 H        -1.095376         1.081209         3.601657
 H        -2.028281         1.378453         2.102751
 H        -1.359760        -0.373164         2.465944
 H         0.444396         3.227291         0.839656
 H         1.090860         2.808720         2.507216
 H         3.237714         1.939714         0.758086
 H         0.279324        -0.995547        -0.873469
 H         1.462376        -1.964251         0.247001
 H        -0.299410        -1.746182         0.662539
 H         2.593653        -1.126266         2.930999
