19
Iteration:  1555charge 0 multiplicity 1
 C        -1.191515         0.791798         2.473368
 C         0.182214         0.926277         1.752537
 C         0.886728         2.300977         1.482803
 C         2.184104         1.470801         1.199826
 O         1.922577         0.764398        -0.096239
 C         0.966499        -0.001157         0.687325
 C         0.434291        -1.299905         0.163384
 C         1.588490         0.299398         1.990802
 O         1.915888        -0.601441         2.999437
 H        -1.770756         1.736462         2.565855
 H        -1.769712         0.266153         1.677427
 H        -1.118288         0.191310         3.439030
 H         0.479985         2.986958         0.740930
 H         0.743943         2.756918         2.568928
 H         3.149738         1.962505         1.165068
 H        -0.231422        -1.590898         0.946235
 H        -0.099072        -1.261138        -0.783548
 H         1.250525        -2.169162         0.107727
 H         1.901786        -0.105451         3.820988
