19
Iteration:  3315
 C        -1.120814         0.751385         2.420746
 C         0.195679         0.969208         1.738745
 C         0.975193         2.320640         1.468015
 C         2.241750         1.439334         1.131813
 O         1.786513         0.762648        -0.037143
 C         0.936277        -0.095903         0.741181
 C         0.402042        -1.280265         0.088348
 C         1.610603         0.310325         2.031526
 O         1.846110        -0.530308         3.068488
 H        -1.168272         1.013167         3.423519
 H        -2.010668         1.234941         1.835451
 H        -1.308926        -0.298713         2.419660
 H         0.727096         3.031379         0.727727
 H         1.020851         2.792344         2.392281
 H         3.324070         1.721341         1.203225
 H         0.272732        -2.022166         0.918205
 H        -0.609660        -1.161783        -0.308757
 H         1.080520        -1.795331        -0.667445
 H         2.213307         0.032557         3.815803
