19
Iteration:  1204charge 0 multiplicity 1
 C        -1.013057         0.769767         2.442065
 C         0.263331         0.926856         1.793074
 C         0.975607         2.336334         1.573024
 C         2.213958         1.505877         1.110001
 O         1.782649         0.880253        -0.060959
 C         0.846844         0.003681         0.737712
 C         0.459104        -1.267031         0.048094
 C         1.631725         0.267908         2.038993
 O         1.781061        -0.758116         3.001601
 H        -1.224920         1.190263         3.429004
 H        -1.677659         1.245374         1.649732
 H        -1.514911        -0.256553         2.372373
 H         0.644524         3.153532         0.884245
 H         0.982739         2.893026         2.593821
 H         3.267968         1.676837         1.028899
 H         0.131403        -1.971573         0.848828
 H        -0.503416        -1.195624        -0.334605
 H         1.280177        -1.725275        -0.588308
 H         1.619107        -0.246180         3.854680
