19
Iteration:  1073charge 0 multiplicity 1
 C        -1.106689         0.726492         2.454626
 C         0.169042         0.941489         1.748716
 C         1.078996         2.272202         1.636908
 C         2.196978         1.449835         1.180612
 O         1.824823         0.811730        -0.068828
 C         0.909287         0.027803         0.664489
 C         0.286558        -1.172083         0.018975
 C         1.470519         0.171023         2.015399
 O         2.047081        -0.596834         3.027937
 H        -1.461247         1.523053         3.134148
 H        -1.906710         0.629584         1.645871
 H        -1.075631        -0.297308         2.952308
 H         0.532837         2.996315         0.843013
 H         1.225903         2.803936         2.619915
 H         3.159909         1.861378         1.280315
 H        -0.457056        -1.782292         0.673615
 H        -0.186878        -0.681665        -0.846690
 H         1.032167        -1.968607        -0.439567
 H         1.692229        -0.284011         3.859512
