19
Iteration:   963charge 0 multiplicity 1
 C        -1.262139         0.775956         2.324983
 C         0.124133         0.990528         1.764553
 C         1.002426         2.255740         1.601414
 C         2.256099         1.396445         1.306873
 O         1.835604         0.853379        -0.098783
 C         0.884190        -0.042640         0.708907
 C         0.251409        -1.233898         0.114879
 C         1.556228         0.219185         1.988752
 O         2.179608        -0.558320         2.969006
 H        -1.199582        -0.127445         2.909075
 H        -1.558851         1.520188         3.081989
 H        -1.939914         0.457773         1.522719
 H         0.893557         3.067284         0.808669
 H         1.180460         2.652501         2.641243
 H         3.193939         1.769180         1.569445
 H        -0.419326        -1.860878         0.893657
 H        -0.401419        -1.184623        -0.750316
 H         1.099068        -1.751715        -0.474622
 H         1.724812        -0.353652         3.851467
