19
Iteration:  2593charge 0 multiplicity 1
 C        -1.139447         0.656287         2.421836
 C         0.214023         1.032038         1.770714
 C         1.026042         2.299353         1.564123
 C         2.246498         1.410383         1.201094
 O         1.886976         0.734711        -0.084964
 C         0.937957         0.015363         0.674866
 C         0.277866        -1.237596         0.105136
 C         1.499264         0.331643         2.024665
 O         1.917662        -0.562898         2.956909
 H        -1.997487         0.398757         1.836378
 H        -0.821092        -0.091585         3.204806
 H        -1.479534         1.471200         3.073891
 H         0.876741         2.920989         0.632490
 H         1.069911         2.999174         2.471515
 H         3.164247         1.856704         1.244857
 H        -0.050116        -1.966530         0.951162
 H        -0.707622        -1.030033        -0.365121
 H         1.058332        -1.862211        -0.334802
 H         1.824558        -0.293143         3.881915
