19
Iteration:   507
 C        -1.188718         0.837500         2.181146
 C         0.229632         0.952084         1.779795
 C         0.907347         2.314504         1.489721
 C         2.201641         1.492882         1.148694
 O         1.722698         0.733893        -0.060133
 C         0.903835        -0.011047         0.815331
 C         0.345689        -1.344266         0.207006
 C         1.569998         0.256628         2.124357
 O         2.138256        -0.600948         3.046078
 H        -1.390277         1.189413         3.167227
 H        -1.736221         1.505931         1.555737
 H        -1.588478        -0.150923         1.940359
 H         0.490053         3.114399         0.846230
 H         0.966100         2.685456         2.531957
 H         3.132187         1.962900         0.864238
 H        -0.060867        -2.003992         0.977410
 H        -0.361541        -1.221823        -0.534495
 H         1.229561        -1.924150        -0.172842
 H         2.469038        -0.027468         3.806933
