19
Iteration:  1944
 C        -1.105840         0.783069         2.526424
 C         0.191629         0.980638         1.760501
 C         0.930849         2.301296         1.517006
 C         2.183949         1.533097         1.198482
 O         1.864482         0.778647        -0.087462
 C         0.932045        -0.068763         0.715428
 C         0.428872        -1.330578         0.042517
 C         1.617063         0.238824         2.021038
 O         1.872180        -0.582114         3.004149
 H        -1.528690         1.798072         2.490113
 H        -1.690368         0.031447         2.125220
 H        -0.977917         0.503224         3.560130
 H         0.493933         2.941139         0.659802
 H         1.001671         3.020562         2.321368
 H         3.127401         1.950852         1.153747
 H        -0.003722        -1.947187         0.790940
 H        -0.427694        -1.315437        -0.743349
 H         1.249332        -1.843677        -0.525341
 H         1.386397        -0.295248         3.828293
