19
Iteration:  2736charge 0 multiplicity 1
 C        -1.008872         0.750689         2.485289
 C         0.251040         1.019803         1.787842
 C         0.965293         2.244933         1.539223
 C         2.200168         1.501161         1.122551
 O         1.873235         0.746452        -0.103787
 C         0.871013         0.034352         0.716347
 C         0.348033        -1.309898         0.072450
 C         1.615208         0.256449         1.940251
 O         1.813660        -0.501160         3.117351
 H        -1.802933         1.397310         2.153977
 H        -1.287085        -0.373215         2.324513
 H        -0.977276         0.887635         3.620292
 H         0.514944         2.887766         0.735650
 H         1.172333         2.954028         2.418428
 H         3.209069         1.998988         1.199111
 H        -0.366587        -1.888372         0.830361
 H        -0.367706        -1.279104        -0.797985
 H         1.254415        -1.901714        -0.237426
 H         1.316669        -1.327410         3.275715
