19
Iteration:  1905
 C        -1.115333         0.650664         2.271258
 C         0.234253         0.928428         1.671253
 C         0.878298         2.317409         1.518010
 C         2.153788         1.436315         1.241104
 O         1.882645         0.711904        -0.045429
 C         0.923322         0.007277         0.716967
 C         0.172088        -1.157607         0.128435
 C         1.610219         0.313365         2.030987
 O         2.081801        -0.569289         3.111035
 H        -1.683401         1.512611         2.584467
 H        -1.847722         0.017135         1.611522
 H        -0.934038         0.048823         3.243498
 H         0.778602         2.948260         0.684527
 H         1.018441         2.814746         2.502002
 H         3.106678         2.096642         1.239067
 H        -0.273689        -1.822926         0.898378
 H        -0.444937        -0.810499        -0.631911
 H         0.988841        -1.794648        -0.294651
 H         2.142031        -0.004877         3.883696
