19
Iteration:  4370charge 0 multiplicity 1
 C        -0.949027         0.668863         2.491833
 C         0.283467         0.890912         1.725086
 C         0.799350         2.295378         1.373683
 C         2.259513         1.456120         1.161410
 O         1.889390         0.721593         0.019375
 C         0.875367        -0.085042         0.733273
 C         0.300840        -1.194055        -0.026950
 C         1.557530         0.383708         2.081053
 O         1.863125        -0.527159         3.117308
 H        -0.965898         1.178916         3.508063
 H        -1.766823         1.113239         1.858352
 H        -1.192650        -0.477972         2.576770
 H         0.370981         2.771405         0.503912
 H         0.927259         3.029461         2.242717
 H         3.207075         1.946183         1.103552
 H        -0.373574        -1.807607         0.634877
 H        -0.306937        -0.800736        -0.995763
 H         1.142017        -1.821281        -0.300456
 H         1.951256         0.004014         3.920632
