19
Iteration:  3316
 C        -1.123763         0.754917         2.421815
 C         0.195517         0.962780         1.728942
 C         0.981815         2.327960         1.466737
 C         2.234133         1.439261         1.138700
 O         1.787339         0.767693        -0.034980
 C         0.934284        -0.106621         0.732294
 C         0.401358        -1.280462         0.092022
 C         1.613197         0.318735         2.033594
 O         1.844594        -0.530915         3.068136
 H        -1.189874         1.027556         3.430758
 H        -2.009001         1.255727         1.872025
 H        -1.304312        -0.337964         2.410024
 H         0.714222         3.054810         0.686178
 H         1.079469         2.788395         2.455907
 H         3.306489         1.724134         1.203657
 H         0.276751        -2.052947         0.932722
 H        -0.596914        -1.197228        -0.326033
 H         1.070416        -1.814669        -0.671219
 H         2.254653         0.007472         3.811615
