19
Iteration:  2221
 C        -1.179535         0.756054         2.298643
 C         0.194215         1.017210         1.749384
 C         0.957258         2.293600         1.527946
 C         2.173486         1.463929         1.209596
 O         1.798133         0.726965         0.013067
 C         0.916753        -0.046794         0.769508
 C         0.284069        -1.240487         0.088970
 C         1.557694         0.220863         2.024220
 O         2.152839        -0.549491         2.986959
 H        -1.732983         1.677730         2.462601
 H        -1.905793         0.081537         1.754236
 H        -1.025904         0.222984         3.255440
 H         0.627397         3.119867         0.919658
 H         1.191790         2.825098         2.446914
 H         3.192273         1.782077         1.038168
 H        -0.544982        -1.485772         0.707502
 H        -0.223576        -1.150291        -0.782105
 H         1.085504        -1.999853         0.003307
 H         1.837262        -0.246353         3.880392
