19
Iteration:  4864charge 0 multiplicity 1
 C        -1.146741         0.577806         2.323389
 C         0.200220         0.980985         1.760781
 C         0.867639         2.331139         1.499739
 C         2.192820         1.397136         1.121466
 O         1.899046         0.681585        -0.058755
 C         0.936904        -0.073865         0.787280
 C         0.252608        -1.130797         0.080178
 C         1.523125         0.309680         2.090780
 O         2.109225        -0.389126         3.145960
 H        -1.408777         1.341489         3.019896
 H        -1.911699         0.701803         1.587296
 H        -1.208884        -0.447211         2.767029
 H         0.375833         3.080075         0.950549
 H         1.021183         2.774490         2.515398
 H         3.139596         1.837427         1.021800
 H        -0.372300        -0.681838        -0.656326
 H         0.936839        -1.690632        -0.464471
 H        -0.357080        -1.749300         0.777444
 H         2.298633        -1.303066         2.839100
