19
Iteration:  1793
 C        -1.154467         0.806391         2.487253
 C         0.213036         1.002698         1.770490
 C         0.909774         2.284300         1.393742
 C         2.228501         1.543078         1.137201
 O         1.863630         0.743063        -0.076287
 C         0.848277         0.049172         0.704568
 C         0.528954        -1.405184         0.170143
 C         1.564938         0.281492         2.060893
 O         1.858162        -0.613919         3.015872
 H        -1.328938         0.569698         3.491170
 H        -1.767076         1.730194         2.432508
 H        -1.655123        -0.032296         1.922573
 H         0.501309         2.885690         0.622573
 H         1.058674         2.929703         2.244501
 H         3.199376         1.983624         1.226880
 H         0.071803        -2.032421         0.861160
 H        -0.157861        -1.449650        -0.586455
 H         1.514196        -1.794690        -0.223092
 H         1.901349        -0.358358         3.986115
