19
Iteration:  3369
 C        -1.214372         0.762854         2.348890
 C         0.196247         0.920325         1.778073
 C         0.938110         2.263410         1.493395
 C         2.199767         1.513532         1.177601
 O         1.887332         0.766793        -0.098291
 C         0.912399        -0.028405         0.744105
 C         0.397128        -1.284548         0.239335
 C         1.528721         0.296400         1.998438
 O         1.954709        -0.528753         3.084220
 H        -1.172850         1.154292         3.322668
 H        -1.804333         1.637037         1.921257
 H        -1.733895        -0.144961         2.309242
 H         0.753691         2.847195         0.664616
 H         1.054630         2.794857         2.337851
 H         3.198245         2.019176         1.256197
 H        -0.105376        -1.874706         0.984486
 H        -0.260946        -1.159920        -0.591607
 H         1.131478        -1.980822        -0.198351
 H         2.525276        -1.178604         2.574054
