19
Iteration:  4314
 C        -1.138725         0.804867         2.335021
 C         0.221419         0.976794         1.753170
 C         0.921571         2.329704         1.531556
 C         2.189479         1.415501         1.249276
 O         1.887979         0.748418        -0.119442
 C         0.823106         0.011761         0.755500
 C         0.400686        -1.405216         0.216701
 C         1.583807         0.322466         2.002550
 O         1.959685        -0.567671         2.966891
 H        -1.025203         1.072990         3.471069
 H        -1.989895         1.352758         1.873669
 H        -1.316053        -0.372239         2.348325
 H         0.720816         2.980385         0.682340
 H         0.997658         3.009878         2.444798
 H         3.093928         2.044597         1.250455
 H         0.552262        -2.198561         1.009228
 H        -0.684369        -1.178184        -0.171572
 H         1.137258        -1.586236        -0.657146
 H         1.493770        -0.249091         3.765496
