19
Iteration:  1875charge 0 multiplicity 1
 C        -1.214074         0.608336         2.131559
 C         0.248566         1.016531         1.941419
 C         0.946666         2.277933         1.511482
 C         2.143716         1.451917         1.170354
 O         1.799250         0.723124        -0.079218
 C         1.012149        -0.085291         0.793911
 C         0.181559        -1.140628         0.136609
 C         1.639339         0.290064         2.116736
 O         2.121249        -0.517487         3.071261
 H        -1.714419         1.368784         2.802316
 H        -1.733616         0.306407         1.182071
 H        -1.441938        -0.342974         2.587545
 H         0.673210         2.876289         0.566862
 H         1.198197         3.014123         2.339477
 H         3.168253         1.902271         1.069948
 H        -0.516763        -1.706125         0.876364
 H        -0.290800        -0.591560        -0.798758
 H         0.822293        -1.803566        -0.370215
 H         2.177036        -0.101340         3.962803
