19
Iteration:  4776charge 0 multiplicity 1
 C        -1.129513         0.782536         2.402751
 C         0.219669         1.059049         1.813248
 C         0.858582         2.334481         1.536788
 C         2.149166         1.436484         1.179425
 O         1.884576         0.704512        -0.073445
 C         0.951100        -0.048639         0.694149
 C         0.370005        -1.356567         0.089576
 C         1.516730         0.279421         2.010777
 O         1.987957        -0.449030         3.088848
 H        -1.327997         1.089723         3.465000
 H        -2.023801         1.239596         1.934352
 H        -1.180737        -0.382332         2.424031
 H         0.474455         2.983822         0.720383
 H         1.039169         2.855701         2.581092
 H         3.069137         1.993449         1.139659
 H        -0.417152        -1.280563        -0.656682
 H         1.092762        -1.893713        -0.561189
 H         0.081982        -2.074751         0.845613
 H         2.559343        -1.209000         2.853309
