19
Iteration:   150charge 0 multiplicity 1
 C        -1.200278         0.624043         2.139655
 C         0.266173         0.940924         1.905601
 C         0.930526         2.282237         1.423602
 C         2.177099         1.379239         1.185135
 O         1.787200         0.748645        -0.051911
 C         0.964302        -0.078590         0.754612
 C         0.137697        -1.181518         0.111990
 C         1.631688         0.281550         2.088432
 O         2.222914        -0.372074         3.189806
 H        -1.655282         1.544382         2.720710
 H        -1.888690         0.621481         1.172795
 H        -1.481898        -0.307776         2.639027
 H         0.412294         2.736322         0.493727
 H         1.275839         2.892891         2.277364
 H         3.216442         1.464909         1.144147
 H        -0.715774        -1.353707         0.685028
 H        -0.179405        -0.910736        -1.008365
 H         0.760601        -2.131048        -0.015979
 H         1.779179        -0.310334         4.095144
