19
Iteration:  3085
 C        -1.165128         0.784842         2.323651
 C         0.236537         0.916773         1.765481
 C         0.917205         2.308100         1.499727
 C         2.203826         1.440122         1.092593
 O         1.853750         0.688774        -0.067939
 C         0.947836        -0.048918         0.764804
 C         0.322686        -1.234355         0.129728
 C         1.571744         0.240035         2.049428
 O         1.934972        -0.467974         3.177663
 H        -1.114328         1.210118         3.286894
 H        -1.950320         1.379362         1.739540
 H        -1.617811        -0.209549         2.415763
 H         0.464366         3.070341         0.718654
 H         1.159358         2.991204         2.391249
 H         3.307309         1.813406         0.952718
 H        -0.102024        -1.936887         0.848018
 H        -0.518998        -0.883464        -0.507575
 H         1.008870        -1.829736        -0.528950
 H         2.881791        -0.777058         3.139185
