19
Iteration:  1368
 C        -1.120130         0.842045         2.352294
 C         0.248881         0.973519         1.796847
 C         0.890699         2.337242         1.574190
 C         2.155896         1.463833         1.224381
 O         1.837994         0.819785        -0.067949
 C         0.945481        -0.027226         0.667339
 C         0.434751        -1.294982         0.151086
 C         1.555147         0.250299         2.051230
 O         1.944799        -0.716981         2.948796
 H        -1.381528        -0.194719         2.410285
 H        -1.291848         1.268851         3.372922
 H        -1.810140         1.476077         1.738605
 H         0.615900         2.945629         0.714618
 H         0.838317         2.936602         2.555895
 H         3.134235         1.864389         1.019022
 H        -0.258831        -1.655663         0.944041
 H        -0.227330        -1.174400        -0.679370
 H         1.355496        -1.987078        -0.105190
 H         1.732223        -0.424929         3.830372
