19
Iteration:  2477charge 0 multiplicity 1
 C        -1.250789         0.738908         2.216425
 C         0.238117         0.913600         1.782043
 C         0.967964         2.260689         1.525563
 C         2.263656         1.395899         1.249127
 O         1.780817         0.762327        -0.045025
 C         0.917976        -0.025302         0.768411
 C         0.161507        -1.200876         0.169162
 C         1.593604         0.246420         2.030866
 O         2.226761        -0.496476         3.022835
 H        -1.727658         1.693996         2.409637
 H        -1.807401         0.152777         1.462267
 H        -1.394449         0.091238         3.090109
 H         0.664743         2.880643         0.688128
 H         0.859217         2.890470         2.397245
 H         3.402517         1.822280         1.296180
 H        -0.800063        -1.451152         0.610156
 H        -0.120887        -0.797511        -0.770706
 H         0.848286        -2.019639         0.126999
 H         1.820041        -0.229819         3.854945
