19
Iteration:  4750
 C        -1.153039         0.768057         2.463836
 C         0.198408         0.891698         1.733466
 C         0.928872         2.266478         1.346959
 C         2.198064         1.410047         1.149551
 O         1.734688         0.829603        -0.049926
 C         0.878244         0.040160         0.757127
 C         0.522357        -1.266111         0.157892
 C         1.588877         0.346261         2.070948
 O         1.960613        -0.543455         3.115688
 H        -1.077082         1.159579         3.478393
 H        -1.951326         1.425982         2.170424
 H        -1.489689        -0.219511         2.574267
 H         0.543445         2.820139         0.484405
 H         0.873371         2.765737         2.305110
 H         3.268911         1.772511         1.061230
 H         0.055638        -1.228035        -0.840998
 H         1.447556        -1.830645        -0.351327
 H        -0.048338        -1.986600         0.740869
 H         1.864388        -1.484411         2.883127
