19
Iteration:  3470
 C        -1.190035         0.695744         2.329516
 C         0.228395         0.852807         1.712713
 C         0.970195         2.293486         1.500033
 C         2.171965         1.385451         1.166120
 O         1.826902         0.754624         0.003118
 C         0.890135        -0.054290         0.758873
 C         0.277996        -1.154931        -0.016060
 C         1.633662         0.210275         2.026620
 O         2.130746        -0.343391         3.173066
 H        -1.397385         1.563004         2.881267
 H        -1.938507         0.347394         1.540998
 H        -1.310397        -0.108421         3.121981
 H         0.478517         2.946608         0.838483
 H         1.088970         2.691487         2.428359
 H         3.167263         1.801443         1.247335
 H        -0.726964        -1.459171         0.482288
 H        -0.178498        -0.885320        -0.949727
 H         0.851124        -2.107053         0.005294
 H         1.426988        -0.863312         3.563054
