19
Iteration:  4044
 C        -1.254205         0.771623         2.119479
 C         0.213977         0.968486         1.722024
 C         0.979907         2.362531         1.588681
 C         2.131251         1.425343         1.219008
 O         1.751136         0.761047        -0.029462
 C         0.926264        -0.041501         0.777491
 C         0.240384        -1.200933         0.287864
 C         1.559991         0.218488         2.010079
 O         2.238215        -0.614871         2.989093
 H        -1.648135         1.365179         3.002754
 H        -1.835858         0.960058         1.172360
 H        -1.229954        -0.350968         2.411250
 H         0.774381         3.068649         0.803867
 H         1.097359         2.792073         2.529777
 H         3.152341         1.881732         1.285276
 H         0.018799        -1.773401         1.242934
 H        -0.570560        -1.222231        -0.526894
 H         1.092767        -1.744668        -0.121152
 H         2.308188        -0.125229         3.855557
