19
Iteration:  3515
 C        -1.034269         0.634060         2.385628
 C         0.240819         0.958159         1.747937
 C         0.906103         2.345678         1.444464
 C         2.215320         1.515463         1.170210
 O         1.880766         0.702985         0.016283
 C         0.932060        -0.043125         0.735352
 C         0.294960        -1.205055         0.091854
 C         1.536566         0.266648         2.015208
 O         1.937977        -0.530841         3.083443
 H        -1.253694         1.287706         3.220971
 H        -1.871910         0.722278         1.588674
 H        -1.258358        -0.423089         2.812004
 H         0.610205         2.933762         0.573096
 H         1.006087         2.923169         2.324320
 H         3.129874         2.120031         1.078038
 H        -0.189536        -2.092352         0.644982
 H        -0.607904        -0.942140        -0.530103
 H         1.072442        -1.756175        -0.503307
 H         1.727036         0.049607         3.819738
