19
Iteration:   901charge 0 multiplicity 1
 C        -1.197514         0.670459         2.295024
 C         0.269956         0.922621         1.826123
 C         0.933580         2.260821         1.470949
 C         2.262370         1.494172         1.166074
 O         1.759095         0.802040        -0.054430
 C         0.939093        -0.059757         0.806260
 C         0.184723        -1.077829         0.074882
 C         1.620855         0.233335         2.086098
 O         2.124128        -0.650862         3.061667
 H        -1.809570        -0.048067         1.652852
 H        -1.261360         0.507532         3.411476
 H        -1.802442         1.634280         2.115941
 H         0.417664         2.867628         0.682072
 H         0.949441         2.937198         2.301129
 H         3.259115         1.964468         1.056647
 H        -0.417991        -1.562294         0.774763
 H        -0.188176        -0.889862        -0.949505
 H         1.105236        -1.837736        -0.045973
 H         2.024160        -0.083817         3.891338
