19
Iteration:  3913charge 0 multiplicity 1
 C        -1.081753         0.693677         2.455167
 C         0.261617         0.911879         1.735741
 C         0.913638         2.336488         1.564053
 C         2.241646         1.466802         1.178951
 O         1.775745         0.748279        -0.059575
 C         0.969607        -0.065177         0.655378
 C         0.296577        -1.292745         0.050601
 C         1.645221         0.230495         1.929551
 O         1.933194        -0.457209         3.138342
 H        -0.865715         0.953196         3.504500
 H        -1.854412         1.340994         2.077707
 H        -1.486152        -0.310609         2.240478
 H         0.725498         3.068384         0.747560
 H         0.640584         2.901476         2.419049
 H         3.160474         2.037725         0.893762
 H        -0.411001        -1.759442         0.719770
 H        -0.210949        -1.049904        -0.889341
 H         1.097930        -1.941029         0.034875
 H         1.464011        -0.036820         3.865499
