19
Iteration:   498charge 0 multiplicity 1
 C        -1.184299         0.814214         2.239454
 C         0.186636         0.957647         1.712948
 C         0.922493         2.337839         1.511286
 C         2.147903         1.515210         1.109657
 O         1.791489         0.719675        -0.036624
 C         0.851181        -0.043854         0.714413
 C         0.402410        -1.316525         0.240543
 C         1.533576         0.273599         2.104877
 O         2.150756        -0.620024         3.047984
 H        -1.320474         1.278547         3.256337
 H        -1.691443         1.410383         1.518889
 H        -1.701896        -0.101769         2.356943
 H         0.581890         3.125917         0.821466
 H         1.019251         2.726134         2.492868
 H         3.154554         1.829021         1.107851
 H         0.041938        -1.672266         1.091837
 H        -0.426807        -1.262612        -0.420287
 H         1.198726        -1.935399        -0.264825
 H         2.308560        -0.214510         3.963249
