19
Iteration:  4205
 C        -1.102155         0.685606         2.367703
 C         0.173901         0.984700         1.764653
 C         0.896175         2.234639         1.491229
 C         2.182101         1.455104         1.203697
 O         1.905937         0.671934        -0.055452
 C         0.927512        -0.019787         0.728526
 C         0.199416        -1.181288         0.056486
 C         1.481434         0.312119         2.096399
 O         2.135337        -0.491766         3.037720
 H        -1.456431         1.419150         3.149661
 H        -1.982058         0.665617         1.717050
 H        -0.986302        -0.334230         2.868397
 H         0.704443         2.825143         0.557930
 H         1.051175         3.059510         2.284178
 H         3.195127         1.891682         1.366011
 H        -0.656918        -1.612580         0.616845
 H        -0.045540        -1.153231        -1.024650
 H         0.952484        -1.930389        -0.000986
 H         2.026059        -0.126476         3.951852
