19
Iteration:  4891
 C        -1.100808         0.681277         2.449122
 C         0.182252         0.985896         1.718816
 C         0.882455         2.294111         1.420142
 C         2.239596         1.426240         1.332429
 O         1.862940         0.831204        -0.051665
 C         0.878244        -0.041590         0.701609
 C         0.316296        -1.295374         0.058678
 C         1.567175         0.216360         1.988349
 O         2.017225        -0.428447         3.105651
 H        -1.293383         1.441396         3.307361
 H        -2.047413         0.946069         1.821814
 H        -1.144127        -0.325302         2.875822
 H         0.394989         2.836590         0.441339
 H         0.747716         2.934306         2.316986
 H         3.238599         1.991940         1.304184
 H        -0.261161        -1.078613        -0.884698
 H         1.101373        -2.149372        -0.031663
 H        -0.369522        -1.761705         0.788796
 H         2.527770        -1.231421         2.879178
