19
Iteration:  3268
 C        -1.121183         0.685536         2.324053
 C         0.209439         0.950848         1.687908
 C         0.933965         2.288635         1.474568
 C         2.268950         1.453660         1.238896
 O         1.879183         0.727136        -0.036165
 C         0.997690        -0.120240         0.721531
 C         0.154409        -1.202162         0.110406
 C         1.566113         0.278176         2.052738
 O         2.067450        -0.415294         3.143886
 H        -1.262860         1.290566         3.289328
 H        -1.988747         0.697028         1.577805
 H        -1.221099        -0.278483         2.814591
 H         0.513118         2.902784         0.691318
 H         0.840025         3.056877         2.228495
 H         3.251899         1.924133         1.065600
 H        -0.477360        -1.883321         0.644558
 H        -0.503477        -0.569194        -0.576543
 H         0.729033        -1.838738        -0.556349
 H         1.432880        -1.059373         3.490963
