19
Iteration:  1751charge 0 multiplicity 1
 C        -1.036431         0.723292         2.454740
 C         0.216421         0.943249         1.710333
 C         0.897182         2.293967         1.458585
 C         2.218481         1.513573         1.158397
 O         1.896978         0.764600        -0.113956
 C         0.896448        -0.014778         0.677297
 C         0.419645        -1.344405         0.196963
 C         1.536715         0.355761         2.030275
 O         1.841371        -0.581963         3.079650
 H        -0.925256         0.370514         3.431859
 H        -1.643837         1.665611         2.467017
 H        -1.651225        -0.018442         1.820201
 H         0.540923         2.951311         0.704211
 H         0.831492         2.859726         2.434624
 H         3.148288         2.019576         1.002834
 H        -0.134705        -1.826541         0.956266
 H        -0.152672        -1.339744        -0.685079
 H         1.438436        -1.912167         0.028559
 H         1.510860        -0.099673         3.852284
