19
Iteration:  3664charge 0 multiplicity 1
 C        -1.147824         0.618795         2.284811
 C         0.239620         0.906278         1.714262
 C         0.953112         2.308569         1.514939
 C         2.199067         1.408626         1.146173
 O         1.892646         0.732411        -0.064330
 C         0.856100        -0.045114         0.782269
 C         0.183231        -1.174367         0.083544
 C         1.569568         0.314700         2.065796
 O         2.124280        -0.435299         3.148002
 H        -1.364401         1.342189         3.157247
 H        -2.026671         0.707050         1.613073
 H        -1.211940        -0.334899         2.743639
 H         0.605543         2.937078         0.795078
 H         1.214988         2.837898         2.445604
 H         3.109097         2.088309         1.140253
 H        -0.706674        -1.675422         0.532986
 H        -0.069173        -0.931683        -0.966935
 H         0.924838        -1.942366        -0.121130
 H         1.586965        -0.588192         3.929813
