19
Iteration:  2872charge 0 multiplicity 1
 C        -1.295232         0.690826         2.286509
 C         0.164673         0.971858         1.695723
 C         1.072067         2.351240         1.532987
 C         2.177221         1.389448         1.154974
 O         1.859457         0.662570        -0.014161
 C         0.959438        -0.044938         0.778171
 C         0.265716        -1.247555         0.135521
 C         1.558543         0.307185         2.068753
 O         2.089470        -0.394470         3.083718
 H        -1.197211         0.786687         3.427520
 H        -1.923156         1.478142         1.958346
 H        -1.860148        -0.200724         1.999967
 H         0.759996         3.196057         0.782539
 H         1.006664         2.866019         2.492426
 H         3.000346         1.863789         1.143667
 H        -0.200748        -1.765418         0.972593
 H        -0.494857        -0.938904        -0.727493
 H         1.025326        -2.025184        -0.207982
 H         2.435273        -1.320167         2.927094
