19
Iteration:   458
 C        -1.062675         0.741393         2.488273
 C         0.199787         0.947270         1.719095
 C         0.927538         2.356261         1.386960
 C         2.148540         1.501714         1.182484
 O         1.909713         0.781454        -0.016341
 C         0.951534         0.005504         0.680428
 C         0.382581        -1.370962         0.215004
 C         1.548294         0.341254         2.031662
 O         1.898638        -0.602419         2.958378
 H        -1.286477         1.741822         2.980417
 H        -1.954838         0.513836         1.796095
 H        -1.029191        -0.108317         3.209615
 H         0.598047         2.755644         0.406893
 H         1.016994         3.140900         2.192274
 H         3.180296         1.821714         1.367498
 H         0.074389        -1.918404         1.216763
 H        -0.591863        -1.330357        -0.463606
 H         1.126579        -2.062385        -0.242779
 H         1.347116        -0.444064         3.718756
