19
Iteration:   911charge 0 multiplicity 1
 C        -1.253454         0.720248         2.228320
 C         0.270385         0.876280         1.889606
 C         0.918330         2.293975         1.516746
 C         2.231572         1.498570         1.114300
 O         1.764826         0.817965         0.005922
 C         0.945079        -0.039516         0.783287
 C         0.227786        -1.156879         0.103139
 C         1.689843         0.226279         2.049046
 O         2.146720        -0.633736         3.052476
 H        -1.670982        -0.257182         1.882462
 H        -1.391019         0.556588         3.339648
 H        -1.770731         1.701959         1.964625
 H         0.567770         2.747676         0.539012
 H         1.109826         2.952755         2.338653
 H         3.145733         2.007777         0.924191
 H        -0.689899        -1.457428         0.612087
 H        -0.243869        -0.504871        -0.665266
 H         0.714203        -2.172239        -0.317897
 H         1.859110        -0.314050         3.949285
