19
Iteration:   157charge 0 multiplicity 1
 C        -1.209864         0.638187         2.147311
 C         0.269648         0.919370         1.820433
 C         0.954897         2.270727         1.457695
 C         2.210720         1.407606         1.237655
 O         1.787878         0.717102        -0.005611
 C         0.896002        -0.106528         0.732519
 C         0.132417        -1.209318         0.079284
 C         1.623441         0.290091         2.055222
 O         2.241725        -0.339142         3.163035
 H        -1.573924         1.428880         2.790797
 H        -1.687980         0.572426         1.221964
 H        -1.406008        -0.265940         2.785717
 H         0.652176         2.880870         0.590156
 H         1.041961         3.006778         2.302937
 H         3.285657         1.757688         1.269312
 H        -0.815886        -1.413943         0.702222
 H        -0.213961        -0.887132        -0.830697
 H         0.663436        -2.149522         0.067646
 H         1.625306        -0.255947         3.933821
