19
Iteration:  2515charge 0 multiplicity 1
 C        -1.089285         0.827399         2.459971
 C         0.178405         0.984381         1.729711
 C         0.922700         2.264169         1.532256
 C         2.207768         1.466866         1.156307
 O         1.852951         0.700574        -0.093808
 C         0.881097         0.010376         0.696523
 C         0.391738        -1.239040         0.099459
 C         1.503966         0.228154         2.037158
 O         1.977074        -0.590386         3.044641
 H        -1.754420         1.710377         2.348267
 H        -1.701998         0.081782         1.965458
 H        -0.931280         0.638104         3.518208
 H         0.477147         3.021372         0.815836
 H         1.122409         2.683981         2.565320
 H         3.151998         1.881605         1.180857
 H        -0.158892        -1.916068         0.760916
 H        -0.080225        -1.063699        -0.894668
 H         1.208271        -1.904686        -0.250702
 H         1.986190        -0.166329         3.943699
