19
Iteration:  3418charge 0 multiplicity 1
 C        -1.240314         0.704701         2.277494
 C         0.185786         0.977653         1.822656
 C         0.912667         2.223828         1.490793
 C         2.247969         1.400259         1.206720
 O         1.859422         0.733279        -0.071818
 C         0.939076         0.032405         0.774406
 C         0.265998        -1.205696         0.134966
 C         1.548896         0.311555         2.103645
 O         2.159957        -0.428820         3.070810
 H        -1.662728         1.365357         3.114750
 H        -1.954095         0.851706         1.500401
 H        -1.239697        -0.441530         2.533718
 H         0.559727         2.793244         0.550814
 H         0.990784         2.906696         2.453036
 H         3.279286         1.699447         1.227635
 H        -0.734993        -1.618324         0.481107
 H         0.151695        -1.042051        -1.001743
 H         0.806582        -2.184796         0.022332
 H         1.741246        -1.284030         3.123475
