19
Iteration:  1552
 C        -1.206773         0.795215         2.446974
 C         0.199719         0.913230         1.751074
 C         0.871418         2.317338         1.488182
 C         2.184470         1.477801         1.187325
 O         1.936260         0.763834        -0.065029
 C         0.954352         0.015011         0.672205
 C         0.398101        -1.323400         0.138757
 C         1.589439         0.281820         1.992165
 O         1.942959        -0.587281         3.002314
 H        -1.717161         1.722259         2.629262
 H        -1.888657         0.180428         1.776662
 H        -1.083183         0.245179         3.419205
 H         0.441722         2.986736         0.744174
 H         0.819825         2.725401         2.567659
 H         3.249496         1.921136         1.336531
 H        -0.257236        -1.692665         0.981634
 H        -0.042449        -1.240404        -0.806214
 H         1.156005        -2.180571         0.121718
 H         1.927450         0.023488         3.811124
