19
Iteration:  4941charge 0 multiplicity 1
 C        -1.140922         0.704419         2.478720
 C         0.207762         0.946193         1.792741
 C         0.960519         2.329246         1.533902
 C         2.168935         1.587995         0.969001
 O         1.832647         0.786721        -0.109979
 C         0.897915        -0.002757         0.730357
 C         0.516222        -1.305892         0.144398
 C         1.562459         0.284613         2.027582
 O         1.809585        -0.566403         3.120051
 H        -1.079778         0.908030         3.510783
 H        -1.861672         1.355088         2.086311
 H        -1.500265        -0.333830         2.502161
 H         0.414378         2.882451         0.859241
 H         1.252617         2.767840         2.501836
 H         3.224317         1.896445         0.877068
 H         0.160534        -1.184513        -0.866948
 H         1.405640        -2.083343         0.323435
 H        -0.329952        -1.799913         0.793064
 H         2.511074        -1.207986         2.839201
