19
Iteration:  1245charge 0 multiplicity 1
 C        -1.142206         0.685323         2.526306
 C         0.171764         0.963568         1.721988
 C         0.986127         2.357430         1.563867
 C         2.280574         1.337127         1.252026
 O         1.888865         0.803314        -0.035960
 C         0.939515        -0.000041         0.607399
 C         0.311949        -1.250939         0.010899
 C         1.539909         0.293947         2.004269
 O         1.928993        -0.517632         2.984022
 H        -0.958605         0.512617         3.575301
 H        -1.702907         1.598243         2.349565
 H        -1.778543        -0.138719         2.187870
 H         0.734973         3.049687         0.824964
 H         0.863099         2.504662         2.662796
 H         3.341002         1.815569         1.320037
 H         0.056783        -2.040948         0.919075
 H        -0.593459        -1.125483        -0.669837
 H         1.070676        -1.614398        -0.654203
 H         1.392060        -0.522886         3.775108
