19
Iteration:  1448
 C        -1.136747         0.648550         2.349550
 C         0.200720         0.954817         1.656513
 C         0.944035         2.217921         1.477036
 C         2.254657         1.471000         1.286317
 O         1.901294         0.782437        -0.041387
 C         0.938277         0.027648         0.691404
 C         0.238509        -1.252119         0.140533
 C         1.561901         0.312814         2.009295
 O         1.996741        -0.545140         3.058865
 H        -2.103781         0.758688         1.759734
 H        -1.137296        -0.300820         2.911648
 H        -1.391634         1.467335         3.020665
 H         0.421785         3.019243         0.859060
 H         1.115396         2.787856         2.404287
 H         3.253408         1.847640         1.296617
 H         0.022638        -1.831818         1.020325
 H        -0.741828        -1.046512        -0.487570
 H         1.023368        -1.810382        -0.493714
 H         1.718439        -0.015923         3.804632
