19
Iteration:  3089charge 0 multiplicity 1
 C        -1.176931         0.780520         2.316699
 C         0.271731         0.932713         1.799674
 C         0.900303         2.374834         1.488565
 C         2.198995         1.419571         1.079831
 O         1.827893         0.693737        -0.077226
 C         0.975578        -0.077504         0.754533
 C         0.340431        -1.244304         0.130077
 C         1.577921         0.230149         2.031045
 O         1.905230        -0.465658         3.187414
 H        -1.079128         1.131565         3.374884
 H        -1.785849         1.441096         1.783667
 H        -1.601594        -0.216219         2.501795
 H         0.517017         2.946491         0.687757
 H         1.150394         2.858592         2.403637
 H         3.215936         1.775977         1.083333
 H        -0.044115        -1.907985         0.869010
 H        -0.424083        -0.839157        -0.454920
 H         1.061925        -1.729712        -0.470616
 H         2.754872        -0.860211         2.967347
