19
Iteration:  3091
 C        -1.172997         0.775063         2.319261
 C         0.286999         0.946414         1.813977
 C         0.897742         2.393778         1.481361
 C         2.194930         1.414158         1.079922
 O         1.814510         0.696440        -0.083891
 C         0.986151        -0.094703         0.744773
 C         0.353458        -1.246499         0.133602
 C         1.582299         0.231633         2.025997
 O         1.889639        -0.463636         3.191945
 H        -1.083005         1.118662         3.445748
 H        -1.749138         1.510157         1.766519
 H        -1.581258        -0.233909         2.508464
 H         0.530018         2.899953         0.647939
 H         1.139095         2.807964         2.437364
 H         3.160257         1.766884         1.158162
 H        -0.046909        -1.945569         0.933472
 H        -0.472277        -0.800473        -0.508202
 H         1.132837        -1.711404        -0.475944
 H         2.712430        -0.932910         2.884490
