19
Iteration:  2064charge 0 multiplicity 1
 C        -1.190539         0.654686         2.180383
 C         0.302123         1.030447         1.932490
 C         0.896997         2.311275         1.518328
 C         2.194070         1.481584         1.229454
 O         1.827429         0.761006        -0.026698
 C         0.881355        -0.110280         0.782414
 C         0.148927        -1.112352         0.099921
 C         1.601181         0.170505         2.015441
 O         2.225285        -0.621775         3.060599
 H        -1.619347         0.489938         1.037815
 H        -1.394432        -0.063707         2.951347
 H        -1.826025         1.549063         2.412938
 H         0.472245         2.858978         0.634970
 H         1.003594         3.073723         2.304523
 H         3.124532         2.055661         1.220406
 H        -0.580340        -1.444948         0.762506
 H        -0.421833        -0.586889        -0.805438
 H         0.766453        -1.878855        -0.342566
 H         2.193194        -0.160008         3.897516
