19
Iteration:  4181
 C        -1.026743         0.630499         2.452774
 C         0.245195         0.943388         1.712238
 C         0.904720         2.335858         1.516302
 C         2.240367         1.457230         1.081790
 O         1.770518         0.740317        -0.054617
 C         0.927506        -0.074169         0.736430
 C         0.311983        -1.226667         0.051131
 C         1.637169         0.239163         1.991888
 O         1.900721        -0.482279         3.170163
 H        -1.397391         1.404460         3.250751
 H        -1.890152         0.818460         1.778116
 H        -1.137501        -0.391030         2.867140
 H         0.588928         3.008495         0.702299
 H         1.164919         3.022149         2.345100
 H         3.281142         1.838992         1.105161
 H        -0.621647        -1.450771         0.585587
 H         0.034563        -0.889813        -0.951136
 H         0.959396        -2.102548        -0.205862
 H         1.952177         0.185311         3.873288
