19
Iteration:  3419
 C        -1.248376         0.697241         2.278036
 C         0.184032         0.989127         1.823074
 C         0.906658         2.214404         1.492658
 C         2.249864         1.393452         1.206816
 O         1.861339         0.735520        -0.066451
 C         0.945118         0.028770         0.769372
 C         0.262281        -1.209245         0.131048
 C         1.548239         0.317271         2.090785
 O         2.165930        -0.425074         3.075427
 H        -1.649680         1.390436         3.141931
 H        -1.966348         0.825059         1.487719
 H        -1.265482        -0.422154         2.558245
 H         0.571108         2.816653         0.538822
 H         1.033815         2.919267         2.484593
 H         3.293173         1.683715         1.241872
 H        -0.717139        -1.594618         0.464043
 H         0.130622        -1.041188        -1.013106
 H         0.796181        -2.178492         0.046612
 H         1.732439        -1.284931         3.121415
