19
Iteration:  3574
 C        -1.217073         0.820928         2.262868
 C         0.210818         0.980816         1.771473
 C         0.874902         2.331223         1.507481
 C         2.226098         1.433358         1.174549
 O         1.835965         0.764283        -0.048242
 C         0.905492        -0.004647         0.787166
 C         0.413404        -1.419802         0.227324
 C         1.623990         0.380539         2.067476
 O         1.956450        -0.626339         2.964937
 H        -1.292951         0.761186         3.418036
 H        -1.771226         1.619651         1.906950
 H        -1.515476        -0.137399         1.848222
 H         0.484934         2.955751         0.778450
 H         1.005099         2.857146         2.397969
 H         3.126375         2.038812         1.275185
 H         0.529885        -2.077753         1.027352
 H        -0.602344        -1.403040        -0.295532
 H         1.049007        -1.671735        -0.616290
 H         2.411454        -0.179765         3.718584
