19
Iteration:  1920
 C        -1.127687         0.697636         2.426846
 C         0.166745         0.953254         1.722268
 C         0.923845         2.231309         1.488669
 C         2.190138         1.467177         1.210479
 O         1.947504         0.824171        -0.124549
 C         0.974253        -0.034025         0.692968
 C         0.312808        -1.217616         0.123842
 C         1.489300         0.201442         2.052791
 O         2.001042        -0.526118         3.057172
 H        -1.579262         1.736232         2.568896
 H        -1.797843         0.033703         1.893111
 H        -1.006913         0.251286         3.392424
 H         0.430275         2.862891         0.700507
 H         0.991949         2.886627         2.374683
 H         3.192027         1.724939         1.375078
 H        -0.214873        -1.736535         0.972272
 H        -0.569339        -0.936658        -0.596280
 H         0.902235        -1.881536        -0.424516
 H         1.887854        -0.059429         3.908844
