19
Iteration:  1302
 C        -1.147153         0.627222         2.237903
 C         0.256652         0.907651         1.885613
 C         0.991662         2.227368         1.556195
 C         2.213730         1.495197         1.157899
 O         1.832207         0.770315        -0.016426
 C         0.952239        -0.034351         0.812177
 C         0.136863        -1.103324        -0.005198
 C         1.671437         0.264406         2.094014
 O         2.040656        -0.573830         3.059064
 H        -1.319937         0.090170         3.135401
 H        -1.803034         1.530896         2.369890
 H        -1.648248         0.083687         1.374347
 H         0.637686         2.836918         0.724592
 H         0.733137         3.066820         2.278146
 H         3.204427         1.950336         1.243760
 H        -0.892117        -1.379659         0.458859
 H        -0.262905        -0.571569        -0.841847
 H         0.697981        -2.062880        -0.448013
 H         2.350367        -0.063729         3.876454
