19
Iteration:  2489charge 0 multiplicity 1
 C        -1.239459         0.697660         2.313085
 C         0.133011         1.041439         1.778612
 C         0.989963         2.361979         1.594995
 C         2.223745         1.386343         1.216249
 O         1.840110         0.717121        -0.018798
 C         0.897842        -0.073163         0.734532
 C         0.247727        -1.271218         0.102560
 C         1.574318         0.246172         2.022945
 O         2.167430        -0.479063         2.971953
 H        -1.711570         1.704405         2.361022
 H        -1.881658         0.252640         1.568415
 H        -1.264891         0.361931         3.336879
 H         0.599411         2.874292         0.725708
 H         1.287059         2.974461         2.435609
 H         3.450958         1.712624         1.363576
 H        -0.563322        -1.629644         0.676162
 H        -0.045830        -1.080229        -0.886506
 H         0.796489        -2.139401        -0.173295
 H         1.851487        -0.270088         3.893964
