19
Iteration:  3147charge 0 multiplicity 1
 C        -1.042451         0.773774         2.432950
 C         0.178606         1.013753         1.652475
 C         0.901605         2.287430         1.479894
 C         2.183368         1.409947         1.250687
 O         1.872260         0.660402        -0.124125
 C         0.961762         0.007992         0.689009
 C         0.459895        -1.275621         0.272157
 C         1.444176         0.296359         2.021280
 O         1.878619        -0.462195         3.049212
 H        -0.703983         1.153528         3.518188
 H        -2.031461         1.331812         2.348751
 H        -1.329263        -0.275889         2.250846
 H         0.666219         2.989864         0.687221
 H         1.111585         2.996253         2.310545
 H         3.172073         1.793700         1.371016
 H        -0.302221        -1.736880         0.979662
 H        -0.248421        -0.943388        -0.610655
 H         1.126147        -2.016319        -0.220187
 H         2.035578        -1.381763         2.688969
