19
Iteration:  1320charge 0 multiplicity 1
 C        -1.148227         0.645511         2.232394
 C         0.235672         0.996167         1.788843
 C         0.887643         2.344183         1.566902
 C         2.206242         1.453817         1.221102
 O         1.845163         0.738282        -0.017685
 C         0.916127        -0.041347         0.698032
 C         0.208722        -1.095397         0.064814
 C         1.519103         0.196490         2.064477
 O         2.144666        -0.618862         3.063830
 H        -1.093827        -0.064073         3.087823
 H        -1.638783         1.569572         2.510613
 H        -1.815085         0.328081         1.457847
 H         0.437657         2.933730         0.764365
 H         1.311063         2.808956         2.448392
 H         3.323561         1.721887         1.498097
 H        -0.713891        -1.318459         0.656382
 H        -0.184665        -0.775728        -0.951876
 H         0.876798        -1.840002        -0.008868
 H         2.318667        -0.033072         3.869033
