19
Iteration:  4007charge 0 multiplicity 1
 C        -1.203677         0.738934         2.283516
 C         0.249729         0.984743         1.815008
 C         0.895151         2.311989         1.466676
 C         2.120166         1.521680         1.187427
 O         1.913189         0.765816        -0.031033
 C         0.957342        -0.028851         0.744993
 C         0.229525        -1.230604         0.174396
 C         1.627308         0.212879         2.012713
 O         2.105874        -0.640466         3.012746
 H        -1.520821         1.592788         2.830917
 H        -2.077942         0.537642         1.585436
 H        -1.400149        -0.115456         2.968782
 H         0.558735         3.054993         0.730135
 H         1.026052         2.962844         2.430414
 H         3.075881         1.986240         1.011766
 H        -0.297040        -1.705436         1.001032
 H        -0.579904        -0.988896        -0.570765
 H         1.005963        -2.006718        -0.105784
 H         1.967765        -0.216463         3.898717
