19
Iteration:  2257charge 0 multiplicity 1
 C        -1.224115         0.757558         2.169245
 C         0.237245         0.916312         1.896117
 C         0.921713         2.184985         1.490214
 C         2.195319         1.464082         1.142126
 O         1.735879         0.758869         0.002039
 C         0.994808        -0.071130         0.761649
 C         0.198420        -1.140556         0.105602
 C         1.628824         0.234152         2.089270
 O         2.204025        -0.535167         3.065610
 H        -1.603658         1.653083         2.597905
 H        -1.846096         0.602307         1.251244
 H        -1.389232         0.020483         2.983901
 H         0.480757         2.696465         0.630127
 H         1.130008         2.842210         2.337043
 H         3.162314         1.974237         1.054708
 H        -0.613585        -1.370854         0.835230
 H        -0.093504        -0.700764        -0.817853
 H         0.641831        -2.068482        -0.077499
 H         2.232613        -0.137797         3.985234
