19
Iteration:  3657
 C        -1.183878         0.677516         2.281776
 C         0.169290         0.914332         1.657559
 C         0.925618         2.323545         1.537165
 C         2.202257         1.420443         1.120677
 O         1.894290         0.720679        -0.067666
 C         0.887685        -0.039476         0.722385
 C         0.221364        -1.167582         0.139284
 C         1.583557         0.269825         2.056580
 O         2.190425        -0.462078         3.172727
 H        -1.297114         1.186488         3.169584
 H        -2.103280         0.776771         1.635652
 H        -1.397482        -0.388573         2.608144
 H         0.514198         3.201086         0.820539
 H         1.028207         2.765618         2.608586
 H         3.213222         1.799379         1.280070
 H        -0.676047        -1.584295         0.647244
 H        -0.230721        -0.878215        -0.791019
 H         0.990625        -1.956083         0.027445
 H         1.504780        -0.599199         3.833866
