19
Iteration:  2558charge 0 multiplicity 1
 C        -0.954944         0.770147         2.511521
 C         0.221805         1.032074         1.746833
 C         0.936561         2.352128         1.494707
 C         2.210755         1.488531         1.148910
 O         1.846026         0.769873        -0.103343
 C         0.934383         0.004675         0.656966
 C         0.397005        -1.299941         0.114738
 C         1.521480         0.268770         2.052319
 O         1.788913        -0.705759         3.040950
 H        -1.946681         1.077923         2.089556
 H        -1.037461        -0.276167         2.715206
 H        -0.793939         1.308063         3.433313
 H         0.598404         2.874968         0.576487
 H         0.927658         2.995823         2.383059
 H         3.195240         2.064401         1.151928
 H         0.162273        -1.879675         0.944736
 H        -0.394470        -1.285719        -0.628690
 H         1.157799        -1.749374        -0.484411
 H         1.321901        -0.315185         3.807865
