19
Iteration:  4440
 C        -1.175236         0.700598         2.180272
 C         0.303691         0.938317         1.779534
 C         0.855672         2.286539         1.590432
 C         2.197155         1.480649         1.177233
 O         1.712615         0.773632        -0.114036
 C         1.002969        -0.073504         0.733865
 C         0.210868        -1.245538         0.140734
 C         1.695203         0.229964         2.101475
 O         2.172438        -0.483259         3.144411
 H        -1.483083         1.521424         2.852072
 H        -1.844778         0.801764         1.202215
 H        -1.390360        -0.291271         2.579727
 H         0.437755         3.038796         0.786603
 H         0.849026         2.794875         2.568891
 H         3.237377         1.897420         0.994504
 H        -0.842231        -1.073810         0.340777
 H         0.334913        -1.179901        -0.919902
 H         0.510878        -2.256724         0.526307
 H         1.516912        -0.461818         3.852822
