19
Iteration:  4343charge 0 multiplicity 1
 C        -1.099838         0.755714         2.538226
 C         0.246529         0.909547         1.762551
 C         0.844821         2.317870         1.330064
 C         2.116992         1.537459         1.104097
 O         1.950743         0.765252        -0.049619
 C         1.065451        -0.119303         0.720156
 C         0.375859        -1.187681         0.108804
 C         1.522778         0.246948         2.044679
 O         1.858503        -0.665416         3.109345
 H        -0.922049         1.176341         3.504568
 H        -1.843033         1.396393         2.105696
 H        -1.435387        -0.209302         2.612741
 H         0.523681         2.941637         0.450715
 H         1.135538         3.077560         2.009471
 H         2.945903         2.298424         0.957283
 H         0.171212        -1.943173         0.878118
 H        -0.467355        -0.785115        -0.288485
 H         1.038444        -1.693800        -0.666508
 H         1.594057        -0.154055         3.886147
