19
Iteration:  2920charge 0 multiplicity 1
 C        -1.139916         0.835317         2.506661
 C         0.233076         0.892678         1.762790
 C         0.966542         2.274974         1.356380
 C         2.229092         1.536093         1.122360
 O         1.802603         0.792848        -0.069712
 C         0.939636        -0.008227         0.708050
 C         0.430574        -1.326723         0.179073
 C         1.571240         0.238202         1.943427
 O         1.799297        -0.591622         3.165034
 H        -1.044840         0.968970         3.553478
 H        -1.840939         1.582531         2.044297
 H        -1.655762        -0.089012         2.273160
 H         0.597007         2.935259         0.601516
 H         1.101314         3.032855         2.166972
 H         3.315602         2.111546         1.186728
 H        -0.032060        -1.877259         1.026680
 H        -0.197459        -1.093299        -0.603113
 H         1.214617        -1.949806        -0.167003
 H         2.696192        -0.908928         3.157536
