19
Iteration:  2713
 C        -1.088830         0.763689         2.386526
 C         0.239514         0.965557         1.807272
 C         0.935515         2.345246         1.503666
 C         2.192556         1.462689         1.155229
 O         1.810696         0.785097        -0.094857
 C         0.996888        -0.053448         0.729274
 C         0.310001        -1.261177         0.074813
 C         1.575531         0.274310         2.036922
 O         1.982138        -0.581299         3.096660
 H        -1.854713         1.105799         1.687832
 H        -1.358190        -0.277756         2.797394
 H        -1.160936         1.479266         3.237571
 H         0.546160         3.112198         0.823145
 H         1.032730         2.830706         2.522088
 H         3.300118         1.769195         1.106366
 H        -0.470945        -1.562743         0.865616
 H        -0.382664        -1.122487        -0.764209
 H         1.013476        -2.082544        -0.234596
 H         1.280925        -1.229656         3.313626
