19
Iteration:  2107charge 0 multiplicity 1
 C        -1.156989         0.765581         2.363536
 C         0.161972         0.958975         1.691381
 C         0.961354         2.271848         1.563677
 C         2.178250         1.425163         1.244775
 O         1.852430         0.801480        -0.037958
 C         0.929082        -0.035816         0.727582
 C         0.258099        -1.266410         0.079751
 C         1.614510         0.197328         1.997373
 O         2.079560        -0.536929         3.037327
 H        -1.957614         0.922598         1.562045
 H        -1.160515        -0.256565         2.703613
 H        -1.452648         1.346445         3.243807
 H         0.713632         3.152121         0.961751
 H         1.077056         2.732852         2.532504
 H         3.188167         1.719596         1.291340
 H        -0.233153        -1.848457         0.777090
 H        -0.660029        -0.945836        -0.529568
 H         0.897049        -1.765983        -0.563153
 H         1.885843         0.148124         3.719419
