19
Iteration:  3682
 C        -1.038844         0.628867         2.371666
 C         0.280493         0.999852         1.894980
 C         0.930337         2.303420         1.441848
 C         2.225173         1.446066         1.170319
 O         1.785689         0.693203        -0.003733
 C         0.966812        -0.085002         0.713428
 C         0.243584        -1.175617        -0.027594
 C         1.557714         0.280314         2.003152
 O         2.026054        -0.436999         3.143764
 H        -1.708977         1.229538         3.085093
 H        -1.667264         0.295361         1.558307
 H        -1.088988        -0.395001         2.915496
 H         0.519780         2.880147         0.506695
 H         0.910544         3.009210         2.249205
 H         3.277297         1.640870         1.289508
 H        -0.712574        -1.359230         0.415057
 H        -0.207558        -0.752163        -1.051055
 H         0.798366        -2.122297        -0.145407
 H         1.476371        -0.057001         3.838026
