19
Iteration:  1838
 C        -1.215787         0.760362         2.205824
 C         0.174049         0.927804         1.682783
 C         0.924009         2.238346         1.489309
 C         2.163696         1.501634         1.240914
 O         1.882000         0.795913        -0.001241
 C         0.911368        -0.054980         0.769245
 C         0.224621        -1.318269         0.144241
 C         1.621110         0.290158         2.063077
 O         2.147150        -0.512450         3.045161
 H        -1.209230         1.073308         3.235172
 H        -1.849390         1.581008         1.814120
 H        -1.548935        -0.332331         2.279852
 H         0.630543         2.919927         0.771262
 H         0.982104         2.674454         2.493272
 H         3.162108         1.952623         1.179922
 H        -0.310486        -1.858129         0.857249
 H        -0.450823        -1.085216        -0.560536
 H         0.995331        -2.099844        -0.226510
 H         2.060852        -0.259377         4.013948
