19
Iteration:  4300charge 0 multiplicity 1
 C        -1.164580         0.742780         2.286114
 C         0.190373         1.025038         1.681267
 C         1.001017         2.309247         1.554023
 C         2.192364         1.454021         1.168045
 O         1.803420         0.777049        -0.021764
 C         0.829302        -0.000649         0.704286
 C         0.398378        -1.308645         0.285549
 C         1.508869         0.250405         1.981704
 O         2.041206        -0.566145         2.997867
 H        -1.323572         1.212529         3.289456
 H        -1.838256         1.327157         1.681444
 H        -1.535793        -0.258950         2.241697
 H         0.629493         3.114383         0.893201
 H         1.183904         2.718985         2.515249
 H         3.311581         1.604199         1.239013
 H         0.595820        -2.065724         1.087815
 H        -0.533557        -1.609427        -0.147244
 H         1.200236        -1.597138        -0.551128
 H         1.882162        -0.242865         3.903094
