19
Iteration:  4243
 C        -1.195176         0.768980         2.213403
 C         0.209026         0.990238         1.761101
 C         0.853712         2.250293         1.508308
 C         2.126178         1.488161         1.222898
 O         1.829483         0.731258        -0.071112
 C         0.980346        -0.041412         0.778397
 C         0.260880        -1.194462         0.214939
 C         1.552444         0.288573         2.137568
 O         2.224200        -0.630914         2.984019
 H        -1.464657         1.458714         2.989101
 H        -1.802780         0.999535         1.319936
 H        -1.427233        -0.207776         2.504617
 H         0.429671         2.635507         0.549007
 H         1.028658         3.012826         2.233006
 H         3.096787         1.962979         1.212811
 H        -0.406296        -1.592227         0.989311
 H        -0.369956        -0.777272        -0.570824
 H         0.930372        -2.089558        -0.087124
 H         2.244649        -0.376164         3.923100
