19
Iteration:  4876
 C        -1.175880         0.652461         2.390903
 C         0.156483         0.894628         1.699012
 C         0.923628         2.281899         1.477662
 C         2.133770         1.469900         1.191928
 O         1.884328         0.707549        -0.058689
 C         0.920465         0.034697         0.675958
 C         0.286566        -1.178034         0.075318
 C         1.535542         0.299000         2.072563
 O         2.113901        -0.420796         3.172065
 H        -1.259140         1.268708         3.285720
 H        -2.058580         0.611228         1.751444
 H        -1.109047        -0.361587         2.876359
 H         0.797108         2.873446         0.587249
 H         1.094611         2.844373         2.431656
 H         3.167357         1.776514         1.364568
 H        -0.325011        -0.933026        -0.761405
 H         0.988296        -1.831062        -0.218440
 H        -0.391780        -1.762252         0.795542
 H         2.317077        -1.276891         2.786111
