19
Iteration:   854charge 0 multiplicity 1
 C        -1.087913         0.687919         2.604071
 C         0.176071         0.955992         1.696205
 C         0.982818         2.295053         1.561023
 C         2.187692         1.479990         1.246125
 O         1.920755         0.749956        -0.139023
 C         0.919148         0.005319         0.584377
 C         0.360078        -1.327110         0.074259
 C         1.515194         0.372037         1.983326
 O         1.851041        -0.564556         3.008148
 H        -1.885559         0.506099         1.896392
 H        -0.937387        -0.159249         3.293996
 H        -1.446377         1.559352         3.170657
 H         0.876665         3.144050         0.857968
 H         1.170084         2.752220         2.553963
 H         3.149251         1.854381         1.288574
 H        -0.151775        -1.898584         0.954616
 H        -0.383598        -1.007443        -0.653543
 H         1.096543        -1.941519        -0.445588
 H         2.080015        -0.165618         3.880309
