19
Iteration:  3930
 C        -0.986174         0.663573         2.498121
 C         0.187325         0.940146         1.642377
 C         0.972619         2.271032         1.520055
 C         2.191027         1.465640         1.128010
 O         1.842115         0.756547        -0.070355
 C         0.869315        -0.046059         0.717790
 C         0.376255        -1.269346         0.056080
 C         1.542014         0.291176         2.006264
 O         1.902918        -0.438669         3.094561
 H        -0.977875         1.069232         3.514252
 H        -2.035582         1.052831         2.178913
 H        -1.316638        -0.416978         2.681627
 H         0.561710         3.075234         0.873669
 H         1.356673         2.606471         2.537571
 H         3.207779         1.826328         1.274915
 H        -0.431999        -1.768475         0.609921
 H        -0.142795        -0.896238        -0.894639
 H         1.150136        -2.099417        -0.168037
 H         1.438091        -0.084555         3.880573
