19
Iteration:  4674charge 0 multiplicity 1
 C        -1.040206         0.628067         2.342529
 C         0.217259         1.007353         1.724377
 C         0.906504         2.332056         1.445559
 C         2.171569         1.438435         1.186665
 O         1.775617         0.830484        -0.021741
 C         0.871747        -0.080236         0.707371
 C         0.262569        -1.255882         0.115876
 C         1.589409         0.243616         2.058829
 O         2.060924        -0.496738         3.147947
 H        -1.380795         1.306467         3.163639
 H        -1.779804         0.821179         1.504952
 H        -1.284450        -0.419735         2.511523
 H         0.452845         3.024784         0.712835
 H         1.065552         2.966147         2.375017
 H         3.238263         1.714970         1.157641
 H         0.148438        -1.473963        -0.927213
 H         0.636365        -2.228338         0.642518
 H        -0.698750        -1.169307         0.443357
 H         3.027110        -0.396838         3.136375
