19
Iteration:  1321charge 0 multiplicity 1
 C        -1.145573         0.647612         2.234540
 C         0.224952         0.997645         1.777844
 C         0.890929         2.341521         1.571081
 C         2.208541         1.454498         1.216968
 O         1.844409         0.731942        -0.019537
 C         0.918231        -0.028130         0.694820
 C         0.218128        -1.096998         0.066189
 C         1.509274         0.192673         2.062972
 O         2.151010        -0.620377         3.064229
 H        -1.087810        -0.042070         3.067763
 H        -1.643428         1.565980         2.549067
 H        -1.835316         0.343709         1.465923
 H         0.439719         2.946501         0.816187
 H         1.277171         2.866419         2.462875
 H         3.310144         1.691871         1.534335
 H        -0.726159        -1.305870         0.676817
 H        -0.189319        -0.806875        -0.926494
 H         0.892742        -1.868008        -0.008493
 H         2.304543        -0.048076         3.861690
