19
Iteration:  2766charge 0 multiplicity 1
 C        -1.008798         0.660531         2.528259
 C         0.107994         1.023472         1.629654
 C         1.069580         2.348970         1.446528
 C         2.166821         1.401308         1.216620
 O         1.856074         0.796797        -0.075862
 C         0.881238        -0.032210         0.738538
 C         0.339638        -1.310443         0.095844
 C         1.496088         0.253376         1.998880
 O         1.861883        -0.442354         3.127413
 H        -1.616400         1.592935         2.586040
 H        -1.754258        -0.026012         2.080351
 H        -0.624794         0.418827         3.504538
 H         0.882141         2.943854         0.599116
 H         1.161016         2.915545         2.368736
 H         3.384951         1.620550         1.441480
 H        -0.265003        -1.998086         0.707392
 H        -0.270679        -0.992740        -0.711759
 H         1.135324        -1.779898        -0.452213
 H         2.396444        -1.254653         2.910720
