19
Iteration:  2541
 C        -1.030246         0.839303         2.541648
 C         0.278271         0.900930         1.757985
 C         0.959222         2.306054         1.395529
 C         2.218351         1.520279         1.205939
 O         1.758397         0.877818        -0.079769
 C         0.978653        -0.055017         0.709891
 C         0.416741        -1.308367         0.097093
 C         1.593577         0.219074         1.992805
 O         1.759958        -0.650440         3.043074
 H        -1.776139         1.515715         2.123726
 H        -1.558831        -0.190089         2.423744
 H        -0.852658         1.024863         3.661397
 H         0.660741         2.896768         0.517314
 H         0.905868         2.871121         2.368570
 H         3.310103         1.898979         1.112460
 H         0.027599        -2.119034         0.897906
 H        -0.303007        -1.038910        -0.744100
 H         1.132915        -2.027138        -0.442669
 H         1.736773        -0.295500         3.961933
