19
Iteration:  3310
 C        -1.111343         0.745642         2.394506
 C         0.216810         0.999968         1.774421
 C         0.949791         2.260121         1.468743
 C         2.268578         1.442522         1.117668
 O         1.791832         0.736545        -0.058528
 C         0.944018        -0.025360         0.780907
 C         0.396263        -1.283267         0.077385
 C         1.575619         0.266921         2.015673
 O         1.865756        -0.528443         3.081533
 H        -1.084323         1.060185         3.524858
 H        -1.882606         1.105751         1.779077
 H        -1.375702        -0.360018         2.454038
 H         0.672959         3.048530         0.675081
 H         0.823724         2.964428         2.414646
 H         3.308280         1.732374         1.137865
 H         0.238905        -1.978441         0.887609
 H        -0.618283        -0.990347        -0.280245
 H         1.104561        -1.636590        -0.627002
 H         1.969098         0.084052         3.819730
