19
Iteration:  3357charge 0 multiplicity 1
 C        -1.170924         0.820205         2.392037
 C         0.197914         0.938587         1.736385
 C         0.905556         2.286337         1.499536
 C         2.158983         1.392181         1.205788
 O         1.892273         0.746280        -0.040930
 C         0.924980         0.036989         0.645983
 C         0.407601        -1.309456         0.227323
 C         1.557317         0.262357         1.998763
 O         1.910628        -0.498616         3.019941
 H        -1.101099         0.937146         3.459162
 H        -1.884436         1.495436         1.813881
 H        -1.613879        -0.106569         2.269044
 H         0.415183         2.934742         0.850311
 H         1.119480         2.791171         2.380794
 H         3.210156         1.777046         1.230631
 H         0.104622        -1.785494         1.106519
 H        -0.441493        -1.260938        -0.441662
 H         1.312605        -1.763842        -0.142730
 H         2.806918        -0.862880         3.046304
