19
Iteration:  2744charge 0 multiplicity 1
 C        -1.022121         0.718804         2.516631
 C         0.204648         1.004463         1.723434
 C         0.975838         2.302120         1.477801
 C         2.233897         1.432612         1.166547
 O         1.818341         0.735048        -0.116312
 C         0.883116         0.029921         0.682501
 C         0.388775        -1.251131         0.061845
 C         1.564503         0.260203         2.023053
 O         1.834083        -0.481109         3.141967
 H        -1.916446         1.381173         2.395984
 H        -1.421828        -0.279473         2.247963
 H        -0.653439         0.739375         3.530277
 H         0.665575         3.016533         0.758117
 H         1.087366         2.732917         2.470263
 H         3.425791         1.792763         1.097658
 H        -0.091106        -1.667210         0.963989
 H        -0.305561        -1.248977        -0.750333
 H         1.199208        -1.913148        -0.218628
 H         1.381063        -1.329380         2.980098
