19
Iteration:   197charge 0 multiplicity 1
 C        -1.143788         0.723532         2.447800
 C         0.181884         0.929768         1.761540
 C         0.924300         2.314831         1.480542
 C         2.188615         1.402475         1.153655
 O         1.936979         0.653539        -0.096100
 C         0.966332        -0.064890         0.668500
 C         0.312505        -1.254638         0.070588
 C         1.496135         0.286020         2.017491
 O         2.047617        -0.346055         3.138766
 H        -1.325995         1.501307         3.179021
 H        -2.033006         0.806126         1.716692
 H        -1.349646        -0.263612         2.905398
 H         0.604739         2.982031         0.679824
 H         1.034930         2.747670         2.474257
 H         3.287213         1.804836         1.205105
 H        -0.378772        -1.599105         0.921218
 H        -0.393179        -1.067104        -0.822798
 H         0.968083        -2.076197        -0.178891
 H         1.290215        -0.556007         3.741528
