19
Iteration:  4627
 C        -1.143117         0.653431         2.278376
 C         0.209894         0.916496         1.784663
 C         0.847458         2.205672         1.545823
 C         2.163764         1.453950         1.149109
 O         1.851804         0.701757        -0.045980
 C         0.947817        -0.114226         0.682383
 C         0.177225        -1.116451         0.062568
 C         1.582962         0.256986         2.097618
 O         2.201070        -0.288342         3.191447
 H        -1.272920         1.196021         3.177402
 H        -2.088059         0.607766         1.748399
 H        -1.035516        -0.294374         2.649161
 H         0.483422         2.896456         0.797619
 H         0.966715         2.733379         2.395696
 H         3.191674         1.804120         1.004379
 H         0.356637        -1.066520        -1.026219
 H         0.446834        -2.085590         0.341336
 H        -0.946536        -1.003951         0.145998
 H         2.186554        -1.220776         2.950753
