19
Iteration:  1379charge 0 multiplicity 1
 C        -1.092419         0.867151         2.374169
 C         0.236192         0.994705         1.781714
 C         0.861435         2.283046         1.517620
 C         2.201326         1.521528         1.183394
 O         1.786929         0.822687        -0.131745
 C         0.942987         0.029042         0.737328
 C         0.460134        -1.264857         0.192176
 C         1.572717         0.208922         2.010916
 O         1.881783        -0.791379         3.020722
 H        -1.592184        -0.036337         2.086740
 H        -1.090276         0.939360         3.485523
 H        -1.791636         1.561658         1.836538
 H         0.487304         2.942787         0.749224
 H         1.234037         2.994424         2.346493
 H         3.047061         2.171940         1.365185
 H         0.076306        -2.010759         0.942950
 H        -0.074741        -1.164375        -0.715016
 H         1.492478        -1.783612        -0.144571
 H         1.875255        -0.555165         3.957996
