19
Iteration:  1766
 C        -1.023038         0.774899         2.396610
 C         0.223943         1.017317         1.690789
 C         0.913478         2.329438         1.383705
 C         2.131209         1.498314         1.101901
 O         1.747873         0.784973        -0.053936
 C         1.007453        -0.024167         0.772950
 C         0.585008        -1.343549         0.213693
 C         1.539934         0.269468         2.069684
 O         1.780472        -0.616418         3.029286
 H        -0.867159         0.386245         3.519752
 H        -1.608567         1.672283         2.635666
 H        -1.622739        -0.058985         2.071921
 H         0.487643         3.017496         0.557132
 H         1.265695         2.876512         2.313546
 H         3.177890         1.839756         1.318559
 H        -0.097262        -1.913080         0.962071
 H        -0.197917        -1.088146        -0.659024
 H         1.314570        -2.025304        -0.181087
 H         1.708576        -0.421541         4.003231
