19
Iteration:  1612charge 0 multiplicity 1
 C        -1.146795         0.729767         2.337477
 C         0.210421         0.982438         1.799529
 C         0.980116         2.322248         1.443147
 C         2.161969         1.475855         1.156605
 O         1.870283         0.812724        -0.104397
 C         0.942643        -0.021133         0.731509
 C         0.500047        -1.300943         0.276280
 C         1.518674         0.307873         2.043158
 O         1.846799        -0.624756         2.969198
 H        -1.268364         1.376394         3.286368
 H        -1.988037         0.712453         1.625918
 H        -1.064113        -0.304421         2.729730
 H         0.335826         2.903423         0.774200
 H         0.939668         2.924184         2.406911
 H         3.154607         1.864864         1.161571
 H         0.196367        -1.871770         1.178798
 H        -0.440471        -1.341016        -0.393795
 H         1.347426        -1.833668        -0.184293
 H         1.865154        -0.148121         3.823963
