19
Iteration:  3868charge 0 multiplicity 1
 C        -1.278661         0.715868         2.311541
 C         0.181107         0.984817         1.739106
 C         0.907430         2.319922         1.478418
 C         2.175901         1.552200         1.263562
 O         1.830809         0.616989        -0.020885
 C         0.925658         0.001204         0.806787
 C         0.306111        -1.264718         0.116467
 C         1.676793         0.305044         2.015637
 O         2.135433        -0.571597         3.005323
 H        -1.058014         0.562131         3.324300
 H        -1.881044         1.560430         2.048869
 H        -1.580518        -0.108486         1.627372
 H         0.359416         2.899705         0.726079
 H         0.998862         3.036091         2.261696
 H         3.248598         1.811215         1.229573
 H        -0.292266        -1.683185         0.881698
 H        -0.495489        -0.805192        -0.541615
 H         0.951643        -2.003082        -0.252700
 H         2.121826        -0.132989         3.874561
