19
Iteration:   830charge 0 multiplicity 1
 C        -0.963375         0.726951         2.500142
 C         0.274495         0.978443         1.701331
 C         0.901790         2.269781         1.481331
 C         2.173112         1.503307         1.112395
 O         1.779254         0.817698        -0.020348
 C         0.895447         0.023360         0.653011
 C         0.402872        -1.236383         0.121980
 C         1.604089         0.231141         1.993548
 O         1.825612        -0.660021         3.088269
 H        -1.756707         1.057147         1.869475
 H        -1.098189        -0.268141         2.872501
 H        -1.026966         1.399295         3.317492
 H         0.579814         2.868105         0.630185
 H         0.986352         2.968129         2.371388
 H         3.270445         1.749610         1.017695
 H         0.058444        -2.044720         0.903884
 H        -0.282969        -1.087732        -0.739213
 H         1.268374        -1.592701        -0.318793
 H         1.414636        -0.291726         3.929367
