19
Iteration:  4971
 C        -1.049455         0.701518         2.387185
 C         0.222617         0.975538         1.699643
 C         0.927760         2.368146         1.487663
 C         2.191436         1.486095         1.231696
 O         1.775384         0.843157        -0.054069
 C         0.891478        -0.045144         0.756273
 C         0.413341        -1.315531         0.184572
 C         1.538760         0.244066         1.953969
 O         1.946700        -0.479052         3.082081
 H        -0.982820         0.711988         3.482075
 H        -1.870562         1.264924         2.020201
 H        -1.411174        -0.352727         2.182483
 H         0.409601         2.751744         0.559507
 H         0.826732         2.964018         2.435536
 H         3.180224         1.535968         1.256718
 H        -0.071683        -1.173325        -0.771058
 H         1.277766        -2.091719         0.034734
 H        -0.299955        -1.805616         0.830249
 H         2.311596        -1.348612         2.821406
