19
Iteration:  4624charge 0 multiplicity 1
 C        -1.139933         0.650331         2.281817
 C         0.193684         0.930097         1.765062
 C         0.853563         2.215364         1.530132
 C         2.168185         1.458890         1.193063
 O         1.861480         0.710867        -0.066463
 C         0.947860        -0.122289         0.694925
 C         0.160078        -1.138443         0.049601
 C         1.572852         0.260586         2.088391
 O         2.214391        -0.293023         3.196439
 H        -1.222449         1.206006         3.218512
 H        -2.064913         0.649904         1.765164
 H        -1.031006        -0.366387         2.729997
 H         0.477828         2.890974         0.765131
 H         0.986995         2.781340         2.481345
 H         3.183772         1.873773         1.020301
 H         0.312866        -1.088868        -1.051841
 H         0.475211        -2.128836         0.366807
 H        -0.999880        -1.044996         0.091652
 H         2.159431        -1.260921         3.014142
