19
Iteration:  1906
 C        -1.113929         0.653204         2.279842
 C         0.230822         0.922615         1.671510
 C         0.878749         2.314284         1.521741
 C         2.148885         1.427587         1.244564
 O         1.887704         0.716530        -0.054005
 C         0.927433         0.003864         0.710199
 C         0.181017        -1.157964         0.131257
 C         1.606505         0.320270         2.027787
 O         2.079265        -0.571667         3.111703
 H        -1.705533         1.534650         2.587564
 H        -1.854812         0.029110         1.619486
 H        -0.899369         0.079128         3.235361
 H         0.797425         2.936486         0.669589
 H         1.029032         2.832364         2.502850
 H         3.066144         2.107213         1.256881
 H        -0.282488        -1.846788         0.906386
 H        -0.476714        -0.808179        -0.650774
 H         0.979535        -1.761943        -0.270440
 H         2.123631         0.010419         3.883333
