19
Iteration:  4109charge 0 multiplicity 1
 C        -1.131272         0.768452         2.432761
 C         0.163636         0.989228         1.676679
 C         0.900339         2.302666         1.439425
 C         2.135588         1.428997         1.147850
 O         1.954516         0.826403        -0.036479
 C         0.903053        -0.072603         0.691009
 C         0.276662        -1.328877         0.130834
 C         1.568015         0.329230         2.111490
 O         2.075032        -0.593057         3.044967
 H        -1.014407         1.014469         3.453718
 H        -1.913879         1.497755         2.167220
 H        -1.591091        -0.259308         2.400353
 H         0.481490         2.850410         0.589393
 H         0.942384         2.983889         2.287731
 H         3.232438         1.637217         1.236106
 H        -0.060729        -1.912551         1.047065
 H        -0.534600        -1.241407        -0.699110
 H         1.150190        -1.789759        -0.317055
 H         1.609575        -0.277172         3.841804
