19
Iteration:  1752
 C        -1.032663         0.725724         2.459132
 C         0.220937         0.950894         1.707543
 C         0.897633         2.285837         1.451234
 C         2.212178         1.516177         1.161324
 O         1.890370         0.766300        -0.114565
 C         0.896711        -0.018196         0.677835
 C         0.427957        -1.343831         0.199768
 C         1.531641         0.359403         2.033781
 O         1.837880        -0.585508         3.079742
 H        -0.896337         0.353720         3.452998
 H        -1.646610         1.657226         2.424449
 H        -1.632781         0.018331         1.797621
 H         0.526371         2.958849         0.697965
 H         0.855338         2.851358         2.454068
 H         3.159734         2.008749         0.998606
 H        -0.117998        -1.840246         0.981060
 H        -0.151911        -1.310893        -0.720139
 H         1.434891        -1.927112         0.019619
 H         1.521238        -0.134248         3.866697
