19
Iteration:  3329charge 0 multiplicity 1
 C        -1.120802         0.753455         2.411379
 C         0.215691         0.978138         1.648253
 C         1.032174         2.355026         1.500656
 C         2.149790         1.474281         1.216651
 O         1.841518         0.792277        -0.085392
 C         0.938882        -0.015542         0.696815
 C         0.359459        -1.441779         0.144351
 C         1.485379         0.288601         2.025844
 O         1.877499        -0.547995         3.097894
 H        -0.888153         1.078976         3.449790
 H        -1.896110         1.356701         1.937983
 H        -1.583087        -0.340740         2.417685
 H         0.694049         3.184000         0.733034
 H         1.290264         2.925261         2.537650
 H         3.133531         1.901646         1.115173
 H         0.249159        -2.259436         0.966438
 H        -0.542070        -1.235598        -0.429785
 H         1.221881        -1.693570        -0.553337
 H         2.636984        -0.290423         3.603212
