19
Iteration:  3813
 C        -1.285649         0.829849         2.188614
 C         0.190481         0.945939         1.761281
 C         0.939117         2.352945         1.564717
 C         2.173590         1.560582         1.190836
 O         1.808904         0.840206        -0.089564
 C         0.919173        -0.078537         0.774133
 C         0.331503        -1.382251         0.304462
 C         1.699108         0.203850         2.076832
 O         2.097679        -0.653131         2.971383
 H        -1.396656         0.946918         3.272912
 H        -1.808738         1.678435         1.716867
 H        -1.753311        -0.174341         1.841369
 H         0.490718         3.090774         0.686811
 H         0.958651         2.842221         2.542964
 H         3.196561         1.948802         1.071846
 H         0.131269        -2.119400         1.027038
 H        -0.572425        -1.125529        -0.340294
 H         1.002559        -1.927053        -0.348585
 H         2.201679        -0.104946         3.796383
