19
Iteration:  4883charge 0 multiplicity 1
 C        -1.175391         0.669688         2.436714
 C         0.168348         0.943633         1.690501
 C         0.926420         2.244947         1.451037
 C         2.176242         1.494456         1.286438
 O         1.873530         0.755225        -0.068991
 C         0.866085        -0.018183         0.666394
 C         0.288987        -1.232840         0.073111
 C         1.564526         0.271477         2.042605
 O         2.082227        -0.427134         3.145779
 H        -1.207430         1.361237         3.254946
 H        -2.052690         0.675550         1.821475
 H        -1.080061        -0.362109         2.786859
 H         0.716037         2.875691         0.587085
 H         0.973658         2.978563         2.246384
 H         3.152149         1.851996         1.425939
 H        -0.293640        -1.062107        -0.870106
 H         1.210705        -1.958419        -0.268510
 H        -0.358564        -1.539526         0.846196
 H         2.422102        -1.297966         2.893155
