19
Iteration:  1763
 C        -1.008873         0.766324         2.433020
 C         0.237572         1.024278         1.681849
 C         0.900692         2.302494         1.381804
 C         2.135456         1.513777         1.120829
 O         1.770947         0.783115        -0.067559
 C         0.979294        -0.014266         0.745957
 C         0.547469        -1.340571         0.216277
 C         1.533597         0.280368         2.071863
 O         1.787680        -0.600718         3.043292
 H        -0.865481         0.366247         3.431025
 H        -1.633089         1.689592         2.511286
 H        -1.643410        -0.071235         1.928836
 H         0.483658         2.939915         0.631819
 H         1.288584         2.781448         2.359489
 H         3.162232         1.824980         1.290913
 H        -0.019538        -1.881808         0.946206
 H        -0.095279        -1.094578        -0.624434
 H         1.336612        -2.139596        -0.193805
 H         1.694714        -0.476737         3.989010
