19
Iteration:   104
 C        -1.114070         0.745992         2.306946
 C         0.198043         0.949579         1.672934
 C         0.855851         2.329417         1.416491
 C         2.218794         1.452102         1.151591
 O         1.913253         0.770965        -0.038848
 C         0.927530        -0.119397         0.821607
 C         0.265563        -1.341576         0.201673
 C         1.553860         0.396442         2.076775
 O         2.017754        -0.542565         3.052177
 H        -1.130179         1.343738         3.294277
 H        -1.937916         1.138357         1.622724
 H        -1.366053        -0.359623         2.499996
 H         0.477370         2.929171         0.512794
 H         0.894024         2.804299         2.439495
 H         3.214304         1.873894         1.242111
 H        -0.396946        -1.872015         0.992518
 H        -0.355835        -1.020632        -0.669625
 H         1.086032        -2.001964        -0.158958
 H         2.313665        -0.199150         3.940918
