19
Iteration:  4568charge 0 multiplicity 1
 C        -1.146609         0.677310         2.456136
 C         0.212812         0.897935         1.785253
 C         0.883929         2.386430         1.467234
 C         2.104540         1.485491         1.090504
 O         1.825314         0.701379        -0.118904
 C         0.922115        -0.003554         0.746989
 C         0.423706        -1.228203         0.119143
 C         1.562806         0.353413         1.987900
 O         2.066319        -0.570660         3.129335
 H        -1.092278         1.002958         3.510470
 H        -1.877561         1.214352         1.952103
 H        -1.263693        -0.427549         2.480109
 H         0.521710         3.111848         0.757661
 H         1.086957         2.717594         2.524284
 H         3.130893         1.819637         0.993039
 H         0.478501        -0.988885        -0.954514
 H         1.078169        -2.171705         0.311698
 H        -0.629083        -1.425136         0.378375
 H         1.301971        -0.528557         3.747767
