19
Iteration:  1572
 C        -1.098593         0.730289         2.360177
 C         0.224247         0.993186         1.755800
 C         0.920723         2.303480         1.470608
 C         2.184610         1.557947         1.107718
 O         1.786438         0.797239        -0.086022
 C         1.001206         0.016911         0.757398
 C         0.517638        -1.313116         0.259894
 C         1.486630         0.289149         2.087677
 O         1.838038        -0.688781         2.965360
 H        -1.411678         1.682929         2.746525
 H        -1.946849         0.241415         1.902065
 H        -0.946639         0.205053         3.300876
 H         0.569349         2.811047         0.548764
 H         1.256288         2.926259         2.206574
 H         3.220739         1.991404         1.200693
 H        -0.101198        -1.965453         0.942513
 H         0.060344        -1.052366        -0.704682
 H         1.347661        -1.892674         0.025782
 H         1.673231        -0.377220         3.871665
