19
Iteration:  3019charge 0 multiplicity 1
 C        -1.192498         0.651839         2.221527
 C         0.262892         0.941624         1.840638
 C         0.942007         2.292219         1.465079
 C         2.188270         1.464549         1.106309
 O         1.919570         0.664569        -0.044640
 C         0.885918        -0.030582         0.800908
 C         0.089046        -1.170992         0.047486
 C         1.618251         0.293193         2.115851
 O         2.095089        -0.439581         3.229022
 H        -1.565473         1.545050         2.606581
 H        -1.699737         0.508842         1.223939
 H        -1.431234        -0.094087         2.951151
 H         0.359940         2.910317         0.711631
 H         1.160624         2.785773         2.470873
 H         3.318375         1.869945         1.028625
 H        -0.678504        -1.592070         0.706534
 H        -0.345157        -0.721647        -0.815310
 H         0.785925        -1.958601        -0.253734
 H         2.896719        -0.912301         2.969189
