19
Iteration:  4376
 C        -0.968781         0.621828         2.459733
 C         0.245015         0.945357         1.747034
 C         0.844446         2.331976         1.376507
 C         2.191989         1.418298         1.186374
 O         1.880420         0.729539         0.014548
 C         0.874296        -0.075986         0.731206
 C         0.309099        -1.192962        -0.018647
 C         1.571167         0.299240         2.075381
 O         1.892778        -0.473197         3.112906
 H        -0.925434         1.105233         3.418215
 H        -1.800558         1.018020         1.907262
 H        -1.168261        -0.371167         2.697328
 H         0.619713         2.874421         0.421209
 H         1.040893         2.896844         2.253868
 H         3.187412         1.941633         1.068716
 H        -0.499840        -1.691268         0.505771
 H        -0.135010        -0.883718        -0.885512
 H         1.096769        -1.926825        -0.369184
 H         1.961365         0.001654         3.964605
