19
Iteration:  1997
 C        -1.090775         0.769904         2.476095
 C         0.214604         0.991907         1.835410
 C         0.959806         2.337734         1.529795
 C         2.181031         1.422210         1.232055
 O         1.855175         0.861187        -0.104285
 C         0.951831        -0.001459         0.672546
 C         0.425819        -1.395690         0.130856
 C         1.482661         0.262089         2.001973
 O         1.885146        -0.595540         2.939907
 H        -1.997855         1.157317         1.751719
 H        -1.179422        -0.313548         2.670444
 H        -1.256103         1.279841         3.442245
 H         0.557351         3.082526         0.804262
 H         1.097058         2.792588         2.512590
 H         3.151815         1.701317         1.127109
 H        -0.174912        -2.010014         0.776952
 H        -0.136486        -1.097409        -0.889465
 H         1.126166        -2.083616        -0.226416
 H         2.023224        -0.155947         3.818431
