19
Iteration:  4336
 C        -1.092117         0.761960         2.529006
 C         0.187127         0.956870         1.749244
 C         0.907387         2.330456         1.343469
 C         2.154648         1.525860         1.090904
 O         1.902627         0.776964        -0.006732
 C         1.121327        -0.067846         0.691764
 C         0.360433        -1.267761         0.137344
 C         1.480315         0.251615         2.046000
 O         1.895622        -0.651963         3.061847
 H        -1.124717         1.194037         3.617913
 H        -1.747708         1.404321         1.897324
 H        -1.579751        -0.321924         2.507607
 H         0.315546         2.839982         0.599033
 H         1.126497         3.079087         2.184180
 H         3.146089         2.014868         1.120026
 H         0.420856        -1.993460         1.008947
 H        -0.710816        -0.968873        -0.320198
 H         1.053019        -1.693583        -0.669059
 H         1.462100        -0.213616         3.825553
