19
Iteration:   152charge 0 multiplicity 1
 C        -1.205061         0.624965         2.143320
 C         0.268874         0.934015         1.885345
 C         0.937074         2.282621         1.428460
 C         2.183538         1.385544         1.208564
 O         1.785748         0.740923        -0.034520
 C         0.942316        -0.089142         0.742900
 C         0.134600        -1.192329         0.103800
 C         1.636506         0.294109         2.070561
 O         2.226814        -0.361570         3.185470
 H        -1.609961         1.491106         2.726350
 H        -1.845631         0.601717         1.169990
 H        -1.474781        -0.271466         2.674653
 H         0.483995         2.757719         0.543385
 H         1.229656         2.903471         2.264546
 H         3.260177         1.521542         1.178376
 H        -0.731257        -1.359250         0.685185
 H        -0.208150        -0.899462        -0.997571
 H         0.728712        -2.133067         0.013708
 H         1.763202        -0.313567         4.048472
