19
Iteration:  2484
 C        -1.247178         0.710436         2.263658
 C         0.154573         0.985516         1.776178
 C         0.986797         2.317025         1.569544
 C         2.301754         1.390953         1.227579
 O         1.793098         0.732354        -0.021225
 C         0.924073        -0.041395         0.728723
 C         0.208368        -1.235509         0.163595
 C         1.601220         0.225238         2.044832
 O         2.192044        -0.470915         2.981806
 H        -1.680234         1.702533         2.412634
 H        -1.869875         0.178787         1.423831
 H        -1.376275         0.250273         3.313990
 H         0.566773         2.866574         0.689870
 H         1.025215         3.044762         2.441146
 H         3.244985         1.724060         1.405558
 H        -0.872221        -1.601245         0.632330
 H        -0.087453        -0.945672        -0.946403
 H         0.866369        -2.136636        -0.157855
 H         1.835487        -0.253316         3.835916
