19
Iteration:   728charge 0 multiplicity 1
 C        -1.196298         0.703182         2.145893
 C         0.248838         0.972063         1.947115
 C         0.847705         2.296383         1.528456
 C         2.198990         1.403470         1.156359
 O         1.831732         0.743326        -0.142281
 C         0.903655        -0.003965         0.821255
 C         0.220548        -1.190446         0.212910
 C         1.614086         0.257116         2.134237
 O         2.169620        -0.573637         3.049900
 H        -1.702032         1.400211         2.796280
 H        -1.501710         1.028528         1.147430
 H        -1.525593        -0.264685         2.369555
 H         0.346734         2.638335         0.586379
 H         0.965558         3.075582         2.285582
 H         3.213339         1.881872         0.958961
 H        -0.504211        -1.598047         0.820644
 H        -0.265816        -0.812618        -0.716935
 H         0.956318        -1.989701        -0.209142
 H         2.510125        -0.092288         3.802007
