19
Iteration:  2268charge 0 multiplicity 1
 C        -1.200803         0.758774         2.206004
 C         0.266741         0.915585         1.762135
 C         0.910522         2.282031         1.530132
 C         2.174320         1.454223         1.194858
 O         1.800108         0.771987        -0.022230
 C         0.991178        -0.143781         0.801557
 C         0.172318        -1.166576         0.171511
 C         1.596216         0.200014         2.069497
 O         2.202154        -0.541330         3.048143
 H        -1.527758         1.581651         2.797519
 H        -1.862796         0.641663         1.306120
 H        -1.400158        -0.213717         2.710275
 H         0.562177         2.803739         0.638839
 H         0.880990         2.999836         2.354392
 H         3.144708         1.987497         1.095388
 H        -0.789483        -1.393600         0.680816
 H        -0.275443        -0.662653        -0.635139
 H         0.680195        -1.988619        -0.194957
 H         2.196334         0.182513         3.718478
