19
Iteration:   569
 C        -1.210570         0.700321         2.284989
 C         0.139678         0.954473         1.571184
 C         0.866839         2.356951         1.461693
 C         2.197899         1.426272         1.249208
 O         1.930783         0.693115         0.007144
 C         0.921775        -0.104780         0.784232
 C         0.194414        -1.261964         0.228975
 C         1.660842         0.297807         2.023311
 O         2.182903        -0.472661         3.013277
 H        -1.114934         0.405611         3.358267
 H        -1.658700         1.753119         2.163990
 H        -1.969172        -0.129226         1.971373
 H         0.628894         3.177058         0.787405
 H         0.939400         2.688746         2.546275
 H         3.220823         1.924765         1.256389
 H        -0.637450        -1.573140         1.065033
 H        -0.447657        -0.897790        -0.665639
 H         0.749305        -2.113864        -0.122140
 H         1.793241         0.045012         3.772113
