19
Iteration:  1286charge 0 multiplicity 1
 C        -1.177175         0.640719         2.291602
 C         0.294553         0.888536         1.785771
 C         0.874775         2.254162         1.499008
 C         2.271057         1.503464         1.193288
 O         1.808761         0.759185        -0.064355
 C         0.983252        -0.041322         0.761188
 C         0.174971        -1.011303         0.010271
 C         1.608663         0.233358         2.091021
 O         2.059983        -0.622468         3.141435
 H        -1.188675         0.210857         3.340908
 H        -1.612879         1.615364         2.424363
 H        -1.730894        -0.047129         1.701690
 H         0.414853         2.870655         0.648526
 H         1.072831         2.832757         2.359178
 H         3.362883         1.827409         1.032041
 H        -0.471040        -1.559268         0.668883
 H        -0.265579        -0.439715        -0.874690
 H         0.772697        -1.765598        -0.372602
 H         1.948744        -0.109949         3.965098
