19
Iteration:  1318charge 0 multiplicity 1
 C        -1.152735         0.641972         2.230479
 C         0.258239         0.990217         1.812943
 C         0.884606         2.344654         1.555932
 C         2.201659         1.449493         1.231695
 O         1.848928         0.752885        -0.014911
 C         0.914684        -0.062185         0.711429
 C         0.179469        -1.087705         0.058528
 C         1.542590         0.207456         2.066294
 O         2.129743        -0.613131         3.063643
 H        -1.121009        -0.097546         3.114779
 H        -1.636165         1.590462         2.453837
 H        -1.781563         0.268299         1.417434
 H         0.446913         2.919203         0.663607
 H         1.358229         2.715896         2.439641
 H         3.293582         1.780934         1.384720
 H        -0.674860        -1.359020         0.608913
 H        -0.158007        -0.718553        -0.979325
 H         0.895829        -1.881094        -0.028264
 H         2.337185        -0.025520         3.849191
