19
Iteration:  4516charge 0 multiplicity 1
 C        -1.206345         0.745155         2.410913
 C         0.104063         0.952956         1.685272
 C         0.850858         2.319841         1.542122
 C         2.222245         1.528162         1.153652
 O         1.857479         0.795812        -0.086024
 C         0.856094         0.026790         0.686890
 C         0.478748        -1.323015         0.236316
 C         1.584309         0.252911         2.011788
 O         1.992954        -0.614926         3.014257
 H        -1.035384         1.069937         3.437661
 H        -2.101233         1.258040         1.859235
 H        -1.417057        -0.313134         2.420492
 H         0.630628         2.943631         0.641570
 H         1.045159         2.913710         2.387871
 H         3.326857         1.668767         1.233445
 H        -0.374516        -1.285983        -0.464370
 H         1.269574        -1.869683        -0.184853
 H         0.199299        -1.851045         1.232272
 H         2.719996        -0.219285         3.563093
