19
Iteration:  3817
 C        -1.337126         0.817908         2.203683
 C         0.218909         0.936717         1.747099
 C         0.904257         2.324227         1.543092
 C         2.176994         1.527932         1.231907
 O         1.820703         0.818423        -0.105399
 C         0.919361        -0.041081         0.780994
 C         0.308110        -1.345181         0.310754
 C         1.700649         0.213626         2.034955
 O         2.113228        -0.649237         2.979971
 H        -1.351808         0.918395         3.355561
 H        -1.746327         1.664245         1.686615
 H        -1.701932        -0.053348         1.759651
 H         0.642393         3.080198         0.710755
 H         0.905757         2.857648         2.541194
 H         3.188924         2.000737         1.178885
 H         0.113638        -2.143534         1.125920
 H        -0.560758        -1.152469        -0.293153
 H         1.130066        -1.769402        -0.313357
 H         2.303910        -0.083720         3.730282
