19
Iteration:   238
 C        -1.026630         0.767740         2.476877
 C         0.252044         0.951030         1.616648
 C         0.902695         2.357994         1.341306
 C         2.208125         1.505863         1.100511
 O         1.763753         0.678318        -0.063609
 C         0.923062        -0.026256         0.734077
 C         0.476497        -1.284065         0.175374
 C         1.508659         0.295652         2.126327
 O         1.877804        -0.610554         3.152863
 H        -0.868436         1.243385         3.516669
 H        -1.804166         1.559347         2.175886
 H        -1.268583        -0.252018         2.404009
 H         0.650955         3.037702         0.411166
 H         0.859951         2.994077         2.248606
 H         3.182769         1.837534         0.946918
 H         0.237683        -1.960346         0.882086
 H        -0.305233        -1.163841        -0.666262
 H         1.318608        -1.635724        -0.458990
 H         1.351335        -0.325948         3.967306
