19
Iteration:  4881
 C        -1.178480         0.664977         2.426187
 C         0.165224         0.926238         1.689351
 C         0.932109         2.242011         1.466004
 C         2.153387         1.498455         1.261080
 O         1.876128         0.738897        -0.067767
 C         0.877483        -0.002452         0.663868
 C         0.287332        -1.216543         0.077062
 C         1.558348         0.282147         2.052938
 O         2.092940        -0.425298         3.155478
 H        -1.198274         1.363754         3.315627
 H        -2.098036         0.624607         1.766891
 H        -1.082783        -0.354453         2.796850
 H         0.761166         2.926447         0.506901
 H         1.025774         2.959455         2.286134
 H         3.204045         1.830553         1.444250
 H        -0.316629        -1.035711        -0.871634
 H         1.191528        -1.927092        -0.281395
 H        -0.379370        -1.574676         0.847367
 H         2.399673        -1.317949         2.861915
