19
Iteration:  3852
 C        -1.229857         0.742490         2.225736
 C         0.177516         1.036639         1.775706
 C         0.879343         2.369992         1.470859
 C         2.154690         1.466195         1.240729
 O         1.929630         0.730699         0.008948
 C         0.936402        -0.100828         0.806144
 C         0.220097        -1.311355         0.210998
 C         1.516453         0.295363         2.084098
 O         2.199946        -0.578834         2.914428
 H        -1.370225         0.469696         3.316415
 H        -1.903402         1.661325         2.052015
 H        -1.713219        -0.133280         1.743115
 H         0.701892         2.991695         0.600815
 H         0.991647         2.958296         2.415162
 H         3.129030         1.938588         1.340312
 H        -0.242405        -2.035635         0.963204
 H        -0.493565        -1.070924        -0.558531
 H         1.036358        -1.838746        -0.406013
 H         2.500464        -0.114087         3.696536
