19
Iteration:  4605charge 0 multiplicity 1
 C        -1.099503         0.600286         2.445573
 C         0.211898         0.899802         1.721794
 C         0.894218         2.359656         1.427181
 C         2.152352         1.478521         1.266332
 O         1.880322         0.772324        -0.004628
 C         0.851723        -0.082688         0.645994
 C         0.172992        -1.302614         0.019335
 C         1.604796         0.251936         2.071485
 O         2.202644        -0.315673         3.125575
 H        -1.282700         1.201307         3.303418
 H        -1.916270         0.850891         1.688030
 H        -1.371991        -0.358722         2.634495
 H         0.776691         3.041169         0.582849
 H         0.845667         2.945090         2.246498
 H         3.222630         1.597865         1.561110
 H         0.308403        -1.202485        -1.079469
 H         0.437259        -2.249800         0.286132
 H        -0.972023        -1.143564         0.160255
 H         1.734024        -1.194292         3.224319
