19
Iteration:  4995charge 0 multiplicity 1
 C        -1.195683         0.700112         2.406349
 C         0.179679         0.933029         1.748006
 C         0.866794         2.229502         1.478204
 C         2.166432         1.507046         1.209423
 O         1.944091         0.746977        -0.091904
 C         0.935297         0.005110         0.677667
 C         0.296316        -1.210871         0.138012
 C         1.522893         0.313557         2.032482
 O         2.076239        -0.472605         3.151716
 H        -1.263975         0.926575         3.431054
 H        -1.984941         1.113589         1.857919
 H        -1.479862        -0.378006         2.275669
 H         0.510424         2.920291         0.697956
 H         1.005856         2.645692         2.553822
 H         3.166045         1.923975         1.063894
 H        -0.379687        -1.025556        -0.678867
 H         1.090183        -2.039926        -0.351688
 H        -0.314413        -1.794099         0.945895
 H         2.625859        -1.159841         2.680801
