19
Iteration:  2921charge 0 multiplicity 1
 C        -1.140937         0.836502         2.510203
 C         0.227326         0.900170         1.753739
 C         0.972221         2.277557         1.356846
 C         2.237929         1.534499         1.121100
 O         1.801115         0.787517        -0.069481
 C         0.940929        -0.005647         0.717569
 C         0.430237        -1.332758         0.177870
 C         1.567908         0.247525         1.944706
 O         1.796629        -0.590780         3.158405
 H        -1.034939         0.955957         3.547905
 H        -1.862261         1.570800         2.057304
 H        -1.638634        -0.128796         2.296780
 H         0.574326         2.901982         0.624151
 H         1.091169         2.995648         2.183990
 H         3.329482         2.131255         1.202036
 H        -0.037934        -1.876576         1.001831
 H        -0.180451        -1.092640        -0.589206
 H         1.217704        -1.947445        -0.185440
 H         2.697185        -0.911188         3.163224
