19
Iteration:   493charge 0 multiplicity 1
 C        -1.215250         0.829606         2.287357
 C         0.182488         0.951272         1.682456
 C         0.926936         2.322194         1.537390
 C         2.099179         1.489979         1.110258
 O         1.845989         0.723108        -0.036864
 C         0.869490        -0.036176         0.681189
 C         0.416778        -1.307619         0.252358
 C         1.538729         0.300026         2.048986
 O         2.140252        -0.621060         3.033505
 H        -1.200842         1.364944         3.223151
 H        -1.947742         1.333481         1.568880
 H        -1.617182        -0.216257         2.571696
 H         0.588269         3.010891         0.730288
 H         1.156500         2.925325         2.505918
 H         3.178859         1.805235         1.321248
 H         0.058654        -1.803783         1.326473
 H        -0.494446        -1.232486        -0.424645
 H         1.171468        -1.912404        -0.192115
 H         2.067504        -0.262425         3.922493
