19
Iteration:   845charge 0 multiplicity 1
 C        -1.042726         0.733557         2.524328
 C         0.193090         0.953452         1.730851
 C         0.929658         2.341218         1.540638
 C         2.239260         1.432506         1.181246
 O         1.895692         0.801196        -0.160385
 C         0.901268        -0.023969         0.675541
 C         0.411501        -1.254450         0.092881
 C         1.515699         0.240880         2.018292
 O         1.822310        -0.591507         3.018039
 H        -2.062824         0.550424         2.082484
 H        -0.795377        -0.213435         3.113801
 H        -1.107319         1.561640         3.319169
 H         0.459560         3.055190         0.819161
 H         1.084762         2.726082         2.520442
 H         3.152733         1.909554         1.259269
 H        -0.016859        -1.784662         0.948608
 H        -0.410415        -1.121085        -0.602797
 H         1.207277        -1.899176        -0.440907
 H         1.782230         0.021841         3.788705
