19
Iteration:  2482charge 0 multiplicity 1
 C        -1.252672         0.715034         2.244056
 C         0.178738         0.958936         1.777174
 C         0.983418         2.295700         1.556648
 C         2.309112         1.392616         1.235201
 O         1.782277         0.740967        -0.026793
 C         0.929210        -0.030828         0.737159
 C         0.184899        -1.227899         0.175150
 C         1.600705         0.228344         2.042331
 O         2.205097        -0.476576         2.991446
 H        -1.699518         1.726744         2.428876
 H        -1.814284         0.179528         1.471735
 H        -1.401706         0.204431         3.219263
 H         0.579415         2.892389         0.672840
 H         0.933095         3.021288         2.424494
 H         3.220452         1.742549         1.383678
 H        -0.826681        -1.533564         0.570006
 H        -0.111151        -0.880976        -0.893326
 H         0.877595        -2.091145        -0.072139
 H         1.814788        -0.235349         3.857121
