19
Iteration:  1928charge 0 multiplicity 1
 C        -1.140144         0.739364         2.489710
 C         0.238142         0.914803         1.771331
 C         0.878353         2.285837         1.460972
 C         2.227010         1.441496         1.188866
 O         1.914030         0.820261        -0.040360
 C         0.994031        -0.020679         0.653694
 C         0.323397        -1.276997         0.073803
 C         1.501831         0.262166         1.963343
 O         1.955443        -0.540587         3.042640
 H        -1.774076         1.676266         2.609492
 H        -1.936992         0.060153         1.913280
 H        -1.111350         0.354676         3.562753
 H         0.543045         2.865417         0.634051
 H         0.974582         2.742576         2.481572
 H         3.370567         1.770379         1.263731
 H         0.042123        -1.853010         1.041141
 H        -0.439257        -0.885433        -0.592282
 H         0.991392        -2.014521        -0.373559
 H         1.720409        -0.101073         3.903150
