19
Iteration:  4379charge 0 multiplicity 1
 C        -0.994492         0.609352         2.444183
 C         0.228302         0.979035         1.746106
 C         0.885228         2.332886         1.375368
 C         2.154409         1.420273         1.194542
 O         1.872770         0.723545        -0.002829
 C         0.894627        -0.048689         0.741094
 C         0.318018        -1.206219        -0.008122
 C         1.572880         0.252380         2.062724
 O         1.913813        -0.453450         3.120266
 H        -0.936817         1.121616         3.445890
 H        -1.870180         0.967828         1.961143
 H        -1.144170        -0.463353         2.749960
 H         0.727320         2.896629         0.490863
 H         1.037208         2.906973         2.301656
 H         3.146921         1.886211         1.120744
 H        -0.569418        -1.684667         0.495251
 H        -0.129488        -0.812725        -1.005890
 H         1.056762        -1.982692        -0.359328
 H         1.944901         0.014741         3.961148
