19
Iteration:  2367
 C        -1.039859         0.887656         2.557488
 C         0.246613         0.952340         1.735811
 C         0.862364         2.261319         1.529508
 C         2.183354         1.483461         1.067830
 O         1.844710         0.736037        -0.160522
 C         0.965853        -0.073666         0.643722
 C         0.490158        -1.335435         0.121868
 C         1.625698         0.338300         2.064404
 O         1.762791        -0.613008         3.063834
 H        -0.873389         0.761546         3.609690
 H        -1.623524         1.781686         2.316258
 H        -1.707256         0.054629         2.277092
 H         0.536056         2.926467         0.714761
 H         0.900068         2.708579         2.533275
 H         3.208999         2.108394         1.121452
 H         0.352411        -1.966205         1.021004
 H        -0.471923        -1.282601        -0.271721
 H         1.125015        -1.765420        -0.595550
 H         1.379784        -0.226880         3.871068
