19
Iteration:  3947charge 0 multiplicity 1
 C        -1.029929         0.650354         2.554371
 C         0.201387         1.063994         1.781148
 C         0.919479         2.350313         1.493039
 C         2.174515         1.404847         1.176865
 O         1.874754         0.721945        -0.162740
 C         0.944864        -0.036835         0.612340
 C         0.367273        -1.241471         0.008084
 C         1.472732         0.261750         2.055116
 O         1.899104        -0.507668         3.132347
 H        -1.051586         1.203499         3.558622
 H        -1.886507         0.838624         1.999832
 H        -0.762390        -0.338772         2.830300
 H         0.587725         2.933949         0.584039
 H         0.962858         2.833446         2.433480
 H         3.242552         1.717251         1.100715
 H        -0.296969        -1.750573         0.728349
 H        -0.032050        -1.169064        -0.965600
 H         1.163993        -1.898406        -0.191191
 H         1.640454         0.008985         3.939135
