19
Iteration:   163
 C        -1.177356         0.659058         2.186597
 C         0.245462         0.908120         1.726258
 C         0.970782         2.274951         1.508152
 C         2.238119         1.437406         1.239444
 O         1.812837         0.690565         0.000034
 C         0.870101        -0.097441         0.764402
 C         0.119521        -1.230165         0.099033
 C         1.590706         0.234525         2.068674
 O         2.244815        -0.310685         3.132736
 H        -1.627004         1.472048         2.803381
 H        -1.760455         0.555957         1.186278
 H        -1.231619        -0.260621         2.756524
 H         0.787727         2.915489         0.624962
 H         0.819259         2.930430         2.359306
 H         3.168981         2.012405         1.310168
 H        -0.773693        -1.464531         0.636681
 H        -0.242699        -0.839022        -0.962926
 H         0.675207        -2.188572         0.009551
 H         1.547272        -0.207723         3.757234
