19
Iteration:  1091charge 0 multiplicity 1
 C        -1.156462         0.730449         2.291853
 C         0.299476         0.953190         1.915149
 C         0.951893         2.312578         1.622560
 C         2.201803         1.399786         1.205240
 O         1.716957         0.819147        -0.069870
 C         0.960497        -0.078764         0.752018
 C         0.220053        -1.148012        -0.073309
 C         1.667891         0.238074         2.022367
 O         2.051538        -0.637401         3.046973
 H        -1.407850         1.677608         2.784975
 H        -1.841683         0.502175         1.479083
 H        -1.266424         0.006996         3.077425
 H         0.573376         3.102598         1.063532
 H         1.117530         2.766288         2.598613
 H         3.259396         1.784513         1.077977
 H        -0.576875        -1.627616         0.518597
 H        -0.165711        -0.734140        -0.973898
 H         0.847962        -1.913917        -0.232144
 H         1.983499        -0.125231         3.850139
