19
Iteration:   808charge 0 multiplicity 1
 C        -1.133430         0.744251         2.435612
 C         0.273230         1.017560         1.855527
 C         0.951279         2.300123         1.437673
 C         2.237067         1.522016         1.144028
 O         1.764101         0.828804        -0.138899
 C         0.991652        -0.072012         0.792442
 C         0.371525        -1.307601         0.043012
 C         1.589606         0.281830         2.070506
 O         1.910756        -0.634314         3.053761
 H        -1.827801         1.507819         2.139719
 H        -1.470392        -0.271713         2.317651
 H        -1.052372         0.851113         3.507097
 H         0.508386         2.900475         0.654479
 H         0.964963         3.007374         2.340682
 H         3.325525         1.889652         1.160270
 H        -0.091467        -2.072095         0.837313
 H        -0.422360        -1.034690        -0.704651
 H         1.101683        -1.918973        -0.360076
 H         1.355496        -0.561747         3.828357
