19
Iteration:  1743charge 0 multiplicity 1
 C        -1.129758         0.693206         2.388827
 C         0.207718         0.923570         1.713901
 C         0.889472         2.344086         1.502904
 C         2.228386         1.492042         1.123255
 O         1.934968         0.754973        -0.078376
 C         0.913723         0.023343         0.685211
 C         0.386023        -1.331747         0.194233
 C         1.602846         0.253014         1.987001
 O         1.869832        -0.510051         3.067966
 H        -0.996800         0.352720         3.523205
 H        -1.606663         1.619949         2.704792
 H        -1.811124        -0.131213         2.193939
 H         0.570787         2.928031         0.584345
 H         0.862536         3.008639         2.462832
 H         3.206426         2.028060         1.194230
 H        -0.278243        -1.816086         0.967359
 H        -0.279346        -1.420100        -0.766965
 H         1.300111        -2.007929         0.047429
 H         1.536253        -0.008980         3.809695
