19
Iteration:  4183charge 0 multiplicity 1
 C        -1.027977         0.635117         2.449125
 C         0.261526         0.954760         1.712876
 C         0.893357         2.346467         1.499099
 C         2.214529         1.436242         1.097915
 O         1.783458         0.737203        -0.062253
 C         0.920301        -0.072337         0.742195
 C         0.319708        -1.233680         0.059685
 C         1.620688         0.228736         1.986046
 O         1.918417        -0.484597         3.167169
 H        -1.402309         1.388440         3.206740
 H        -1.878719         0.815493         1.776766
 H        -1.132074        -0.406743         2.887489
 H         0.513304         3.060991         0.705552
 H         1.176598         3.046258         2.424996
 H         3.278856         1.790457         1.143289
 H        -0.617478        -1.373572         0.618077
 H         0.066870        -0.797664        -0.953860
 H         0.935106        -2.048419        -0.208377
 H         1.961561         0.173802         3.866235
