19
Iteration:  3960
 C        -1.046239         0.640333         2.586017
 C         0.236571         0.963332         1.777962
 C         0.959463         2.359469         1.438373
 C         2.212221         1.499538         1.143417
 O         1.862455         0.738082        -0.026182
 C         0.899094        -0.018528         0.701337
 C         0.363806        -1.276385        -0.008186
 C         1.514765         0.232704         1.945909
 O         1.881096        -0.535103         3.091659
 H        -1.336877         1.420080         3.362067
 H        -1.886151         0.599686         1.922377
 H        -1.138937        -0.330929         2.932181
 H         0.509458         2.939152         0.531660
 H         1.129979         3.260658         2.082686
 H         3.238918         1.878230         1.266230
 H        -0.377552        -1.743056         0.660253
 H        -0.201344        -0.923629        -0.798084
 H         1.211036        -1.959504        -0.173796
 H         1.835813         0.043050         3.855890
