19
Iteration:  1052
 C        -1.031721         0.657401         2.537088
 C         0.226619         0.957860         1.688058
 C         0.898702         2.366989         1.618411
 C         2.229134         1.405682         1.204834
 O         1.943015         0.796499        -0.045747
 C         0.809603         0.031331         0.662700
 C         0.273153        -1.173405         0.037482
 C         1.577586         0.263764         1.997355
 O         1.917615        -0.603205         2.947976
 H        -1.092278         1.265760         3.442282
 H        -1.956516         1.033350         2.000335
 H        -1.171430        -0.464934         2.685802
 H         0.825582         2.952948         0.574887
 H         0.997866         2.859375         2.646480
 H         3.247569         1.536171         1.430811
 H        -0.102046        -1.811571         0.942870
 H        -0.481925        -1.115493        -0.826818
 H         1.261581        -1.781450        -0.419254
 H         1.463644        -0.437428         3.835679
