19
Iteration:  3792charge 0 multiplicity 1
 C        -1.151908         0.818607         2.221632
 C         0.263519         1.011486         1.820600
 C         0.897617         2.278216         1.577998
 C         2.144230         1.503230         1.120233
 O         1.716509         0.765437        -0.082530
 C         0.957204        -0.038819         0.702372
 C         0.404771        -1.322764         0.236915
 C         1.562704         0.296040         2.116999
 O         2.056480        -0.642825         2.995752
 H        -1.240432         1.252765         3.256831
 H        -1.642523         1.367980         1.463102
 H        -1.342165        -0.280595         2.105093
 H         0.566058         3.200676         0.826457
 H         1.207207         2.700984         2.556599
 H         3.130164         1.997457         1.042564
 H         0.248079        -1.930884         1.114415
 H        -0.501299        -1.258488        -0.465909
 H         1.227986        -1.846834        -0.211432
 H         1.597338        -0.477822         3.845276
