19
Iteration:   195charge 0 multiplicity 1
 C        -1.139440         0.713514         2.433585
 C         0.178686         0.915648         1.735125
 C         0.914811         2.323512         1.492538
 C         2.194799         1.385608         1.142904
 O         1.932129         0.645017        -0.085915
 C         0.970233        -0.058967         0.669039
 C         0.299838        -1.249242         0.077956
 C         1.481655         0.299884         2.031330
 O         2.080061        -0.346561         3.143711
 H        -1.341449         1.587114         3.142426
 H        -2.084555         0.811654         1.715735
 H        -1.291378        -0.262338         2.889132
 H         0.575383         3.089704         0.693466
 H         1.086574         2.698615         2.517387
 H         3.198925         1.787668         1.312105
 H        -0.339789        -1.500695         0.879792
 H        -0.403915        -1.070695        -0.865091
 H         0.925413        -2.129419        -0.197275
 H         1.244078        -0.503250         3.703731
