19
Iteration:  4599
 C        -1.100197         0.639195         2.419305
 C         0.219138         0.889794         1.772350
 C         0.893337         2.339597         1.408813
 C         2.170966         1.442832         1.268246
 O         1.877002         0.791260         0.033759
 C         0.841662        -0.095866         0.630461
 C         0.204131        -1.273252         0.029282
 C         1.573011         0.281591         2.032289
 O         2.182047        -0.329950         3.102424
 H        -1.196312         1.117642         3.457080
 H        -2.003843         0.889964         1.838365
 H        -1.252475        -0.531594         2.669011
 H         0.760009         2.949220         0.471137
 H         0.810571         3.068885         2.369301
 H         3.253162         1.594832         1.312306
 H         0.273588        -1.255457        -1.062311
 H         0.613320        -2.324531         0.391255
 H        -0.843406        -1.234060         0.124504
 H         1.584997        -1.087720         3.235425
