19
Iteration:  4969
 C        -1.028597         0.712172         2.387314
 C         0.226445         0.988827         1.721318
 C         0.911357         2.378721         1.492660
 C         2.188379         1.479758         1.239567
 O         1.766159         0.838902        -0.059866
 C         0.902270        -0.047780         0.748367
 C         0.424024        -1.334989         0.190291
 C         1.538762         0.248696         1.940279
 O         1.930589        -0.481625         3.082124
 H        -1.036530         0.635290         3.530601
 H        -1.899314         1.308388         1.975612
 H        -1.363346        -0.351436         2.196677
 H         0.425568         2.749813         0.499719
 H         0.846163         2.882523         2.457562
 H         3.267687         1.565364         1.191685
 H        -0.045687        -1.123888        -0.790114
 H         1.213504        -2.022808         0.094250
 H        -0.257752        -1.849021         0.766660
 H         2.303394        -1.356930         2.796522
