19
Iteration:   557
 C        -1.197830         0.739675         2.154084
 C         0.140302         0.984306         1.666017
 C         0.910064         2.260226         1.530013
 C         2.132051         1.466293         1.175181
 O         1.903624         0.695228        -0.045293
 C         0.856223        -0.031157         0.828531
 C         0.194086        -1.277207         0.214116
 C         1.638775         0.251629         2.054982
 O         2.252945        -0.474058         3.076706
 H        -1.087540         0.609136         3.272020
 H        -1.948386         1.627687         2.138598
 H        -1.705279        -0.081091         1.558032
 H         0.593765         2.944922         0.745371
 H         0.946950         2.852221         2.493302
 H         3.204892         1.865656         1.278232
 H        -0.609401        -1.686240         0.991432
 H        -0.412547        -0.852118        -0.689618
 H         0.787468        -2.111365        -0.033444
 H         2.211460        -0.194023         3.974300
