19
Iteration:  2751
 C        -1.033961         0.689769         2.538440
 C         0.209668         0.983432         1.643226
 C         0.998822         2.346667         1.460665
 C         2.250583         1.377749         1.175098
 O         1.798696         0.755319        -0.099110
 C         0.893218        -0.005946         0.636613
 C         0.404168        -1.220360         0.104349
 C         1.488139         0.287608         2.040954
 O         1.857606        -0.479518         3.160569
 H        -1.834554         1.470299         2.508332
 H        -1.475483        -0.243347         2.311617
 H        -0.672064         0.595251         3.574742
 H         0.747533         3.139625         0.694763
 H         1.085753         2.739695         2.466616
 H         3.241030         1.648282         1.117468
 H        -0.043769        -1.786377         0.893741
 H        -0.308527        -1.012824        -0.728218
 H         1.230728        -1.878883        -0.178526
 H         1.553118        -1.340489         2.871717
