19
Iteration:  4907charge 0 multiplicity 1
 C        -1.027018         0.770977         2.463478
 C         0.275416         0.889310         1.767717
 C         0.831823         2.308417         1.477915
 C         2.137626         1.499036         1.170583
 O         1.834557         0.840478        -0.034184
 C         0.933282        -0.072199         0.671131
 C         0.382338        -1.348963         0.115357
 C         1.553599         0.305012         2.028970
 O         1.875745        -0.518398         3.082375
 H        -0.990517         1.402160         3.292938
 H        -1.800142         1.069337         1.829002
 H        -1.194733        -0.288264         2.718202
 H         0.591360         2.839038         0.659666
 H         0.853940         3.051533         2.279310
 H         3.151188         1.694202         1.278511
 H         0.069740        -1.122010        -0.895611
 H         1.246362        -2.065383        -0.079010
 H        -0.488051        -1.701290         0.701300
 H         2.699926        -1.003740         2.816913
