19
Iteration:   967
 C        -1.256922         0.762840         2.324885
 C         0.130847         0.990254         1.787770
 C         0.989124         2.307327         1.587905
 C         2.279481         1.400481         1.285575
 O         1.819069         0.858130        -0.095897
 C         0.913662        -0.034400         0.706171
 C         0.266269        -1.264670         0.126636
 C         1.545410         0.194635         2.006306
 O         2.131875        -0.570268         2.967887
 H        -1.166337        -0.098476         3.066361
 H        -1.460009         1.594216         3.026367
 H        -2.014706         0.337280         1.599500
 H         0.912179         3.160785         0.837879
 H         1.179626         2.731116         2.557016
 H         3.317544         1.764841         1.544678
 H        -0.302562        -1.834548         0.773805
 H        -0.419612        -1.129315        -0.782875
 H         1.072869        -1.758474        -0.608900
 H         1.812242        -0.406810         3.834036
