19
Iteration:  1293
 C        -1.178753         0.625655         2.277038
 C         0.272328         0.894307         1.811766
 C         0.930491         2.238078         1.564752
 C         2.328414         1.576916         1.138002
 O         1.785393         0.740527        -0.044961
 C         0.942398        -0.059026         0.767050
 C         0.168523        -1.045294        -0.004308
 C         1.640870         0.268378         2.105152
 O         2.045655        -0.601426         3.111315
 H        -1.184033         0.103162         3.249883
 H        -1.699220         1.629452         2.271880
 H        -1.812198         0.001239         1.542063
 H         0.470469         2.442187         0.542008
 H         0.910511         2.964981         2.460494
 H         3.335687         1.772193         1.323164
 H        -0.653053        -1.372991         0.640728
 H        -0.266484        -0.434057        -0.777690
 H         0.760545        -1.967989        -0.509480
 H         2.155187        -0.114825         3.995251
