19
Iteration:  1922charge 0 multiplicity 1
 C        -1.133173         0.704219         2.438472
 C         0.178402         0.949370         1.730526
 C         0.918241         2.236860         1.482451
 C         2.202639         1.467547         1.206070
 O         1.944885         0.828267        -0.113505
 C         0.979800        -0.027975         0.694439
 C         0.311469        -1.229582         0.118578
 C         1.481940         0.202580         2.035133
 O         1.992120        -0.524452         3.055165
 H        -1.592558         1.694707         2.580090
 H        -1.787649         0.069509         1.940703
 H        -1.056310         0.272802         3.422106
 H         0.413646         2.865240         0.676275
 H         0.988418         2.842524         2.385329
 H         3.203552         1.691640         1.349488
 H        -0.130502        -1.725807         0.959790
 H        -0.534978        -0.918555        -0.595554
 H         0.929929        -1.959698        -0.447219
 H         1.867582        -0.088073         3.895901
