19
Iteration:   686
 C        -1.153809         0.766724         2.363727
 C         0.175273         0.960578         1.649859
 C         0.921407         2.358980         1.473800
 C         2.172208         1.422021         1.204449
 O         1.863522         0.785525        -0.130760
 C         0.921132        -0.091398         0.744923
 C         0.343063        -1.305413         0.241645
 C         1.497702         0.302197         2.026369
 O         2.105332        -0.552024         3.050300
 H        -0.851535         0.664569         3.410529
 H        -1.844077         1.604187         2.139929
 H        -1.692634        -0.126696         2.104962
 H         0.711387         3.026180         0.620588
 H         0.776328         2.853023         2.473630
 H         3.303352         1.716336         1.456000
 H        -0.203295        -1.730492         1.096832
 H        -0.398285        -1.068897        -0.582214
 H         1.039539        -2.106046        -0.121278
 H         1.697672        -0.290527         3.929745
