19
Iteration:   394charge 0 multiplicity 1
 C        -1.102093         0.651620         2.388191
 C         0.254287         0.961413         1.700722
 C         0.928964         2.293924         1.523558
 C         2.147607         1.448741         1.204902
 O         1.868099         0.706289        -0.088893
 C         0.926476        -0.054371         0.692775
 C         0.296739        -1.262213         0.005614
 C         1.508310         0.281879         2.063599
 O         2.018140        -0.407882         3.174150
 H        -1.646764         1.493420         2.708476
 H        -1.830066         0.180441         1.701039
 H        -0.996360        -0.064438         3.229384
 H         0.607284         2.919510         0.667355
 H         1.116254         2.942513         2.443756
 H         3.267409         1.528333         1.079410
 H        -0.500170        -1.607682         0.768048
 H        -0.231597        -0.988898        -0.885248
 H         0.918707        -2.064616        -0.178569
 H         2.152368         0.277348         3.858978
