19
Iteration:  3342charge 0 multiplicity 1
 C        -1.079467         0.814534         2.356468
 C         0.171772         1.041459         1.704757
 C         0.901269         2.325007         1.557666
 C         2.232170         1.461821         1.172786
 O         1.896255         0.769929        -0.101936
 C         0.851529        -0.035700         0.663601
 C         0.422431        -1.372596         0.190295
 C         1.482549         0.239835         1.999437
 O         1.891342        -0.568933         3.103834
 H        -1.020586         1.046808         3.514548
 H        -1.857860         1.473035         2.094214
 H        -1.374440        -0.313067         2.304637
 H         0.658294         3.086802         0.679732
 H         0.852107         2.826579         2.691212
 H         3.244789         1.777910         1.331704
 H         0.213342        -2.024962         1.069934
 H        -0.518434        -1.425526        -0.429130
 H         1.145160        -1.917280        -0.412165
 H         2.818740        -0.195667         3.088833
