19
Iteration:  1988charge 0 multiplicity 1
 C        -1.130257         0.778236         2.505045
 C         0.227197         0.971973         1.799112
 C         1.002711         2.294404         1.537199
 C         2.228820         1.479122         1.189653
 O         1.778869         0.846604        -0.090035
 C         0.890987        -0.047499         0.679802
 C         0.492164        -1.353938         0.156579
 C         1.524060         0.248705         1.941620
 O         1.838609        -0.624855         2.977050
 H        -1.932848         1.345940         2.010342
 H        -1.317409        -0.253585         2.589934
 H        -1.054729         1.119722         3.535204
 H         0.785795         2.989616         0.656821
 H         1.077561         2.958810         2.394536
 H         3.174300         1.954731         1.288519
 H        -0.105202        -2.021960         0.664863
 H        -0.058860        -1.102388        -0.828146
 H         1.454682        -1.727860        -0.274059
 H         1.818321        -0.026185         3.764857
