19
Iteration:  2466charge 0 multiplicity 1
 C        -1.167223         0.734295         2.153112
 C         0.251221         0.911684         1.802358
 C         0.923028         2.221045         1.485147
 C         2.097746         1.446093         1.211430
 O         1.818902         0.796888        -0.072415
 C         0.873734        -0.059281         0.785573
 C         0.154578        -1.111140         0.160209
 C         1.654857         0.232085         2.107351
 O         2.235644        -0.553326         3.090378
 H        -1.643863         1.670316         2.406901
 H        -1.757110         0.438647         1.261266
 H        -1.243855         0.098810         3.039264
 H         0.616984         2.814300         0.643028
 H         1.157836         2.682239         2.431900
 H         3.276860         1.785216         1.046443
 H        -0.628138        -1.300863         0.893140
 H        -0.093002        -1.001526        -0.849523
 H         0.619990        -2.071778         0.134337
 H         1.933473        -0.269802         3.954785
