19
Iteration:  3195charge 0 multiplicity 1
 C        -1.112327         0.805329         2.268227
 C         0.274085         0.943807         1.797165
 C         0.904626         2.225852         1.529015
 C         2.217098         1.423105         1.083123
 O         1.758264         0.745878        -0.079251
 C         0.979002        -0.065139         0.797676
 C         0.282899        -1.155301         0.115509
 C         1.567216         0.230285         2.076462
 O         1.969255        -0.512151         3.188850
 H        -1.275512         1.460789         3.044314
 H        -1.954993         1.002169         1.532044
 H        -1.306966        -0.209362         2.555627
 H         0.505820         2.780244         0.638936
 H         0.916675         2.973316         2.290597
 H         3.320016         1.707684         0.975817
 H        -0.572187        -1.474881         0.698583
 H        -0.001513        -1.026709        -0.925605
 H         1.038438        -2.034844         0.176564
 H         2.891757        -0.571821         2.972927
