19
Iteration:   752
 C        -1.229823         0.712141         2.198539
 C         0.176545         0.965412         1.679168
 C         0.957683         2.325205         1.491095
 C         2.144607         1.442205         1.253657
 O         1.815416         0.810074         0.019222
 C         0.943666        -0.104485         0.794576
 C         0.218890        -1.236358         0.160438
 C         1.588727         0.167549         2.076576
 O         2.197707        -0.531445         3.024122
 H        -1.569666         1.671705         2.573964
 H        -1.950808         0.450371         1.416672
 H        -1.282199         0.050284         3.038345
 H         0.752210         3.047075         0.701303
 H         1.009532         2.759505         2.533994
 H         3.224273         1.925588         1.220989
 H        -0.465388        -1.521527         1.024063
 H        -0.482070        -0.854569        -0.640413
 H         0.759203        -2.082097        -0.222979
 H         2.754402         0.071275         3.522009
