19
Iteration:  3178
 C        -1.155311         0.798648         2.368646
 C         0.273336         0.943592         1.773682
 C         0.915872         2.321671         1.418305
 C         2.183983         1.503003         1.179102
 O         1.879987         0.751590        -0.105457
 C         0.852453        -0.003503         0.653729
 C         0.294176        -1.323160         0.168920
 C         1.624578         0.252452         2.052401
 O         1.948843        -0.562153         3.182136
 H        -1.304240         1.238513         3.449486
 H        -1.746115         1.204295         1.582442
 H        -1.495459        -0.264388         2.678126
 H         0.596749         3.016553         0.620737
 H         1.237524         2.910548         2.342828
 H         3.086893         2.035179         1.224562
 H        -0.597105        -1.693994         0.717926
 H        -0.078888        -1.052048        -0.831453
 H         0.905713        -2.168830         0.067355
 H         2.820086        -0.926278         3.254645
