19
Iteration:  1365charge 0 multiplicity 1
 C        -1.138591         0.831357         2.352213
 C         0.241510         0.965272         1.797422
 C         0.914643         2.349876         1.576741
 C         2.154518         1.472498         1.221213
 O         1.843995         0.818049        -0.046483
 C         0.946498        -0.012755         0.676472
 C         0.429893        -1.306626         0.137737
 C         1.546893         0.255060         2.051170
 O         1.959195        -0.704806         2.931520
 H        -1.410796        -0.209340         2.442332
 H        -1.223067         1.326590         3.336156
 H        -1.824620         1.383443         1.704700
 H         0.566288         2.871722         0.717177
 H         0.841680         2.816528         2.541944
 H         3.238721         1.787738         1.052970
 H        -0.265323        -1.692677         0.964460
 H        -0.216685        -1.165927        -0.722254
 H         1.172250        -2.021422        -0.064345
 H         1.687333        -0.326187         3.813955
