19
Iteration:  1819
 C        -1.182719         0.815296         2.386299
 C         0.157793         0.972313         1.662541
 C         0.865678         2.333625         1.547500
 C         2.164404         1.472303         1.251593
 O         1.876922         0.705453        -0.089789
 C         1.025552        -0.067316         0.673464
 C         0.411708        -1.320240         0.219448
 C         1.508696         0.229088         2.030890
 O         2.043687        -0.528886         2.986668
 H        -1.292201         0.879642         3.477487
 H        -1.798581         1.691850         2.095666
 H        -1.747382        -0.056431         2.016199
 H         0.612081         3.017917         0.692813
 H         0.762918         3.007545         2.463317
 H         3.272019         1.735696         1.305603
 H        -0.178745        -1.914472         0.968634
 H        -0.398174        -1.104238        -0.557950
 H         1.220328        -1.889150        -0.285670
 H         1.968591        -0.177749         3.914363
