19
Iteration:  4502charge 0 multiplicity 1
 C        -1.237534         0.732634         2.377549
 C         0.167472         1.030508         1.718848
 C         0.942825         2.308861         1.460544
 C         2.141407         1.474170         1.211814
 O         1.919023         0.762331        -0.027048
 C         0.928619         0.013810         0.754276
 C         0.401672        -1.357383         0.248633
 C         1.467651         0.343059         2.013077
 O         2.055500        -0.622251         2.925220
 H        -1.389014         1.097468         3.404528
 H        -2.071630         1.174256         1.944225
 H        -1.387442        -0.374957         2.479769
 H         0.558291         3.000849         0.773942
 H         0.943648         2.705342         2.519551
 H         2.943232         2.186205         1.157366
 H        -0.565693        -1.371926        -0.288230
 H         1.234043        -1.744184        -0.520585
 H         0.251422        -2.104779         1.015013
 H         2.704536        -0.116304         3.429383
