19
Iteration:  4022
 C        -1.241825         0.749973         2.227617
 C         0.228786         0.918565         1.813879
 C         0.933109         2.245139         1.574451
 C         2.272570         1.461155         1.209957
 O         1.874772         0.798228        -0.067238
 C         0.897143         0.006474         0.771312
 C         0.208996        -1.301193         0.238016
 C         1.569059         0.363098         2.047179
 O         2.141740        -0.563657         2.931378
 H        -1.748046         1.591718         2.816173
 H        -1.762502         0.714901         1.175743
 H        -1.424334        -0.279282         2.820354
 H         0.514396         2.725934         0.715299
 H         1.042704         2.791997         2.448551
 H         3.327856         1.869453         1.318701
 H        -0.361198        -1.868468         1.056267
 H        -0.585421        -1.077505        -0.606143
 H         0.795022        -2.047267        -0.280278
 H         2.092388        -0.248600         3.826659
