19
Iteration:  4771charge 0 multiplicity 1
 C        -1.140142         0.763510         2.437235
 C         0.196738         1.034479         1.799936
 C         0.870418         2.350665         1.531245
 C         2.162115         1.439061         1.174038
 O         1.857764         0.702918        -0.104562
 C         0.942118        -0.046962         0.713181
 C         0.419308        -1.320127         0.095424
 C         1.511898         0.240028         2.026117
 O         1.989149        -0.456178         3.096433
 H        -1.265088         1.150937         3.449618
 H        -1.978064         1.258707         1.932015
 H        -1.301277        -0.269056         2.390791
 H         0.605492         3.004024         0.697383
 H         1.045764         2.992912         2.359285
 H         3.072789         2.084207         1.203299
 H        -0.377570        -1.295750        -0.684397
 H         1.206578        -1.855099        -0.557857
 H         0.058181        -2.000912         0.908109
 H         2.388699        -1.298114         2.819543
