19
Iteration:  3175charge 0 multiplicity 1
 C        -1.144426         0.798221         2.418586
 C         0.268707         0.932476         1.754024
 C         0.902246         2.327268         1.414193
 C         2.190516         1.505621         1.182801
 O         1.901858         0.757267        -0.078751
 C         0.852310        -0.010091         0.660324
 C         0.286485        -1.343362         0.166762
 C         1.616813         0.259256         2.041249
 O         1.926113        -0.546252         3.158435
 H        -1.294251         1.234630         3.315400
 H        -1.796347         1.199734         1.688302
 H        -1.521343        -0.267993         2.520459
 H         0.683985         3.138930         0.663992
 H         1.264363         2.929915         2.259866
 H         3.177855         2.021711         1.237615
 H        -0.541522        -1.687130         0.732068
 H        -0.117849        -1.174303        -0.766233
 H         0.954161        -2.184320         0.049095
 H         2.825616        -0.976320         3.082519
