19
Iteration:  3137charge 0 multiplicity 1
 C        -1.064149         0.759358         2.495944
 C         0.132059         1.001381         1.630282
 C         0.939552         2.363056         1.402892
 C         2.164949         1.442859         1.215303
 O         1.892985         0.685287        -0.125269
 C         0.907099         0.013062         0.723794
 C         0.413751        -1.264113         0.208869
 C         1.546189         0.297323         2.005344
 O         1.880193        -0.507032         3.122260
 H        -0.942590         0.750896         3.661481
 H        -1.842939         1.468927         2.014772
 H        -1.381699        -0.295563         2.437292
 H         0.740312         3.046833         0.568943
 H         1.109577         2.690928         2.438356
 H         3.227275         1.686871         1.286730
 H         0.010511        -1.858867         1.107836
 H        -0.348575        -1.210232        -0.689896
 H         1.400198        -1.795521        -0.038262
 H         1.736374        -1.439811         2.778306
