19
Iteration:  2812
 C        -1.175694         0.793216         2.338197
 C         0.248880         0.886977         1.758372
 C         0.910720         2.224220         1.448356
 C         2.157356         1.460659         1.095312
 O         1.861288         0.754294        -0.144670
 C         1.027557        -0.150514         0.784527
 C         0.211515        -1.142963         0.112719
 C         1.655146         0.261294         2.096197
 O         1.974987        -0.486895         3.247768
 H        -1.507171         1.557116         3.012410
 H        -1.951822         0.892828         1.462365
 H        -1.182225        -0.223964         2.830178
 H         0.491957         2.905038         0.719213
 H         1.022474         2.611253         2.505472
 H         3.178668         2.229500         1.168314
 H        -0.582904        -1.634584         0.773015
 H        -0.376374        -0.641442        -0.667073
 H         0.819707        -1.813551        -0.522692
 H         2.841867        -0.915818         3.180953
