19
Iteration:   234charge 0 multiplicity 1
 C        -1.014879         0.767273         2.476623
 C         0.277750         0.969520         1.654907
 C         0.902003         2.361928         1.307887
 C         2.180612         1.485968         1.133653
 O         1.757780         0.699486        -0.067618
 C         0.900640        -0.045634         0.756399
 C         0.470990        -1.278996         0.110091
 C         1.541998         0.314516         2.127159
 O         1.877959        -0.592480         3.167233
 H        -0.946954         1.260140         3.458300
 H        -1.685933         1.471474         2.087342
 H        -1.277544        -0.332913         2.461498
 H         0.672501         2.970252         0.444227
 H         0.765654         3.020808         2.182197
 H         3.257014         1.684687         0.852125
 H         0.165828        -1.954488         1.022093
 H        -0.276517        -1.187104        -0.625521
 H         1.322162        -1.756428        -0.474750
 H         1.276319        -0.544000         3.907853
