19
Iteration:  2942
 C        -0.993379         0.767096         2.486259
 C         0.201414         0.996815         1.693287
 C         0.913132         2.354209         1.484374
 C         2.135411         1.405119         1.133678
 O         1.890200         0.678024        -0.075937
 C         0.901229        -0.022985         0.749110
 C         0.419833        -1.321390         0.137293
 C         1.481330         0.383834         2.031586
 O         1.793037        -0.518825         3.084325
 H        -0.801621         1.179116         3.439717
 H        -1.931580         1.218961         2.059379
 H        -1.235874        -0.277229         2.507270
 H         0.795521         3.161789         0.782200
 H         1.084314         3.003738         2.373305
 H         3.312598         1.712226         1.020764
 H        -0.008520        -1.979808         0.925724
 H        -0.174726        -1.163155        -0.702393
 H         1.292833        -1.871061        -0.134217
 H         2.570567        -1.039080         2.717766
