19
Iteration:  3331
 C        -1.115281         0.755491         2.398206
 C         0.203840         0.993975         1.654642
 C         1.021342         2.349235         1.508911
 C         2.157306         1.480629         1.211729
 O         1.851557         0.790273        -0.095587
 C         0.932089        -0.002811         0.692508
 C         0.366068        -1.458927         0.151255
 C         1.472602         0.270558         2.028543
 O         1.879778        -0.552957         3.100432
 H        -0.822313         1.073175         3.486286
 H        -1.849757         1.343451         1.936200
 H        -1.598490        -0.306873         2.427921
 H         0.709275         3.203235         0.745104
 H         1.234589         2.962955         2.568418
 H         3.138292         1.904751         1.144408
 H         0.235363        -2.225947         0.942209
 H        -0.554227        -1.229401        -0.423077
 H         1.197684        -1.675464        -0.491669
 H         2.699891        -0.264473         3.541596
