19
Iteration:  3443charge 0 multiplicity 1
 C        -1.195758         0.702424         2.306364
 C         0.196539         0.894198         1.737609
 C         0.993874         2.378973         1.566106
 C         2.103461         1.451988         1.256459
 O         1.916046         0.694432        -0.044764
 C         0.961022        -0.055856         0.700299
 C         0.202788        -1.235425         0.054156
 C         1.480757         0.169972         2.046804
 O         2.201813        -0.336068         3.092378
 H        -1.588486         1.605628         2.948689
 H        -1.952191         0.523854         1.478523
 H        -1.234634        -0.191078         2.881184
 H         0.615514         3.127374         0.749113
 H         0.964973         2.864127         2.685792
 H         3.167497         1.790826         1.268849
 H        -0.763767        -1.422617         0.414460
 H         0.027967        -1.089284        -1.052242
 H         0.641554        -2.215352         0.081118
 H         1.895070        -1.153861         3.480866
