19
Iteration:   939
 C        -1.179598         0.752658         2.186154
 C         0.241769         0.892930         1.825230
 C         0.866518         2.328517         1.650977
 C         2.212648         1.424881         1.187776
 O         1.818528         0.753801        -0.020642
 C         0.897161        -0.011093         0.687222
 C         0.222489        -1.165089         0.120138
 C         1.537095         0.200255         2.044562
 O         2.236997        -0.551629         2.994092
 H        -1.542552        -0.236238         2.454931
 H        -1.177620         1.272829         3.148067
 H        -1.800265         1.238684         1.464450
 H         0.478033         3.036086         0.958688
 H         1.104044         2.735272         2.686580
 H         3.270831         1.838563         1.175923
 H        -0.602107        -1.569932         0.850738
 H        -0.373901        -0.940165        -0.751672
 H         0.895645        -1.888351        -0.159694
 H         1.850673        -0.559474         3.877295
