19
Iteration:  2618
 C        -1.115901         0.729061         2.227711
 C         0.285555         0.955761         1.764890
 C         0.939590         2.265035         1.501636
 C         2.244826         1.434863         1.196657
 O         1.778027         0.818492        -0.032237
 C         0.903491        -0.001217         0.736082
 C         0.166452        -1.160476         0.134122
 C         1.622346         0.204927         2.006100
 O         2.075613        -0.655516         3.125328
 H        -1.712153         0.381199         1.390108
 H        -1.161684         0.099480         3.151380
 H        -1.654330         1.688061         2.493973
 H         0.670201         3.034506         0.726768
 H         0.871719         2.752789         2.534000
 H         3.113832         2.042124         1.310237
 H        -0.442791        -1.933128         0.809044
 H        -0.679415        -0.766125        -0.478402
 H         0.986908        -1.847425        -0.244400
 H         2.356617         0.039630         3.720484
