19
Iteration:  1347charge 0 multiplicity 1
 C        -1.230932         0.736107         2.335544
 C         0.156271         0.952062         1.710805
 C         0.970908         2.250270         1.562609
 C         2.256782         1.461474         1.279129
 O         1.904812         0.818707        -0.016973
 C         0.876472        -0.039178         0.713006
 C         0.275328        -1.276351         0.142688
 C         1.559381         0.280274         2.021320
 O         2.058722        -0.583909         2.911255
 H        -1.319133        -0.206719         2.877070
 H        -1.479745         1.530790         3.088037
 H        -2.071913         0.933061         1.607191
 H         0.700668         3.127036         0.916074
 H         1.292934         2.793189         2.539436
 H         3.212846         1.907704         1.474466
 H        -0.590835        -1.648832         0.695790
 H        -0.147394        -1.036539        -0.821825
 H         1.255261        -1.941583        -0.038991
 H         1.922336        -0.352811         3.873518
