19
Iteration:  2799charge 0 multiplicity 1
 C        -1.104260         0.759026         2.391370
 C         0.248398         0.906672         1.792956
 C         0.883248         2.236792         1.510556
 C         2.145616         1.474427         1.075236
 O         1.949627         0.727769        -0.134972
 C         0.925961        -0.064201         0.738100
 C         0.255061        -1.170418         0.069965
 C         1.584118         0.216091         2.047862
 O         1.902547        -0.481493         3.212118
 H        -1.235273         1.765702         2.844546
 H        -1.924151         0.497042         1.672458
 H        -1.233663         0.057082         3.203545
 H         0.427796         2.849359         0.772969
 H         1.174467         2.887804         2.349386
 H         3.311447         1.978907         1.104140
 H        -0.280090        -1.766231         0.826195
 H        -0.392537        -0.740135        -0.630970
 H         0.936029        -1.899820        -0.297542
 H         2.877679        -0.631881         3.120359
