19
Iteration:   878
 C        -1.091289         0.677611         2.403081
 C         0.219808         0.983646         1.749736
 C         0.927333         2.355633         1.557787
 C         2.207648         1.394709         1.227567
 O         1.896801         0.760404        -0.038031
 C         0.832379        -0.046942         0.686876
 C         0.296275        -1.228889         0.080910
 C         1.493652         0.293596         1.993035
 O         2.008046        -0.584332         3.007286
 H        -1.815580         0.032460         1.820560
 H        -0.689826         0.196855         3.349093
 H        -1.742916         1.544407         2.779316
 H         0.600609         3.118056         0.787447
 H         1.156113         2.953527         2.418154
 H         3.140943         1.833981         1.238391
 H        -0.322298        -1.673892         0.870697
 H        -0.307072        -0.798310        -0.730863
 H         1.093685        -1.984670        -0.357977
 H         2.335578         0.044046         3.633616
