19
Iteration:   640charge 0 multiplicity 1
 C        -1.029616         0.782076         2.551254
 C         0.230564         1.038783         1.671584
 C         0.911590         2.329638         1.434255
 C         2.138417         1.448065         1.048289
 O         1.789675         0.749959        -0.133940
 C         1.023346        -0.082763         0.751369
 C         0.488475        -1.356653         0.143488
 C         1.543595         0.330173         2.060263
 O         1.755456        -0.572866         3.120892
 H        -0.735432         0.399491         3.523489
 H        -1.570225         1.697647         2.586533
 H        -1.675458         0.034594         2.149815
 H         0.457035         3.144468         0.784616
 H         1.408069         2.689407         2.329289
 H         3.222393         1.775892         1.005529
 H         0.120591        -2.080278         0.750978
 H        -0.172914        -1.131273        -0.686890
 H         1.426060        -1.853246        -0.456272
 H         1.667502        -0.140902         3.999090
