19
Iteration:  4011charge 0 multiplicity 1
 C        -1.237194         0.755643         2.281054
 C         0.226286         0.954775         1.830765
 C         0.918269         2.289882         1.509610
 C         2.182865         1.515608         1.182716
 O         1.915393         0.781839        -0.041688
 C         0.928226        -0.057508         0.721416
 C         0.191571        -1.265881         0.183177
 C         1.648584         0.263129         2.055558
 O         2.107709        -0.605909         2.973661
 H        -1.646866         1.641236         2.851057
 H        -1.932288         0.545116         1.342640
 H        -1.358959        -0.233219         2.940683
 H         0.577600         2.960447         0.738071
 H         0.968021         2.904024         2.362350
 H         3.176163         2.059784         1.157960
 H        -0.287527        -1.745764         1.090433
 H        -0.606502        -1.041058        -0.632517
 H         1.008582        -1.900824        -0.090431
 H         1.998013        -0.234250         3.861820
