19
Iteration:  2009charge 0 multiplicity 1
 C        -1.112305         0.735112         2.423119
 C         0.207825         1.039628         1.762998
 C         0.910759         2.331140         1.603525
 C         2.185310         1.466145         1.187322
 O         1.877611         0.790751        -0.057650
 C         0.933543        -0.059307         0.649228
 C         0.359558        -1.316525         0.089772
 C         1.506523         0.318105         2.012820
 O         1.980268        -0.644062         2.964307
 H        -2.002418         0.853630         1.637142
 H        -1.179738        -0.269794         2.821578
 H        -1.269695         1.443258         3.250279
 H         0.542246         3.062128         0.819115
 H         1.109194         2.891530         2.519949
 H         3.145732         1.783741         1.452535
 H        -0.258157        -1.512084         0.916739
 H        -0.425438        -1.317319        -0.796093
 H         1.154756        -2.026722         0.002325
 H         2.122263        -0.187596         3.823501
