19
Iteration:  4315
 C        -1.142030         0.808226         2.344339
 C         0.232712         0.979980         1.763586
 C         0.909072         2.322164         1.525022
 C         2.196764         1.426201         1.248087
 O         1.891098         0.748103        -0.123103
 C         0.833397        -0.001450         0.751267
 C         0.404620        -1.402937         0.207073
 C         1.578963         0.328939         2.002655
 O         1.952122        -0.569605         2.970377
 H        -1.020151         1.067322         3.462624
 H        -2.025469         1.363966         1.903664
 H        -1.294795        -0.376133         2.356588
 H         0.741798         2.990313         0.667718
 H         0.971741         3.029267         2.437681
 H         3.093884         2.022631         1.237470
 H         0.537333        -2.184790         0.993534
 H        -0.686269        -1.156326        -0.160795
 H         1.093271        -1.614557        -0.636430
 H         1.494541        -0.292183         3.778198
