19
Iteration:  3796
 C        -1.173677         0.821586         2.202500
 C         0.286763         1.001729         1.802210
 C         0.897945         2.285166         1.584172
 C         2.157748         1.513936         1.090693
 O         1.710597         0.789022        -0.035097
 C         0.986029        -0.040909         0.722298
 C         0.385842        -1.371360         0.215211
 C         1.523385         0.335669         2.082155
 O         2.078233        -0.667015         3.004941
 H        -1.194798         1.197276         3.274339
 H        -1.729652         1.438837         1.462246
 H        -1.417374        -0.184496         2.024267
 H         0.583746         3.032054         0.963374
 H         1.228664         2.778347         2.521205
 H         3.134533         2.029275         1.054108
 H         0.157840        -1.909009         1.225789
 H        -0.523273        -1.248007        -0.332025
 H         1.204722        -1.925283        -0.302302
 H         1.722610        -0.472006         3.905156
