19
Iteration:   219charge 0 multiplicity 1
 C        -1.039875         0.791046         2.454753
 C         0.270131         0.997235         1.812308
 C         0.916336         2.291724         1.326596
 C         2.209187         1.435665         1.142342
 O         1.797760         0.765538        -0.048785
 C         0.912183        -0.064084         0.755550
 C         0.394739        -1.349964         0.078737
 C         1.577725         0.279713         2.030718
 O         1.912232        -0.482015         3.161078
 H        -1.111867         1.269960         3.422610
 H        -1.958700         1.092990         1.853085
 H        -1.194461        -0.321243         2.583231
 H         0.518172         2.600778         0.365681
 H         1.077571         3.095410         2.047800
 H         3.200683         1.984874         1.336263
 H        -0.140985        -2.121725         0.739110
 H        -0.319483        -1.070132        -0.771039
 H         1.236979        -1.824004        -0.378016
 H         1.008667        -0.573747         3.506849
