19
Iteration:  1301charge 0 multiplicity 1
 C        -1.149869         0.625502         2.241396
 C         0.252425         0.904330         1.880306
 C         0.993052         2.226628         1.563582
 C         2.225933         1.509497         1.146962
 O         1.824960         0.765006        -0.018494
 C         0.950646        -0.035474         0.808080
 C         0.145599        -1.105157        -0.007736
 C         1.673094         0.265659         2.098445
 O         2.038679        -0.574264         3.062751
 H        -1.299905         0.099585         3.139267
 H        -1.800551         1.522375         2.343573
 H        -1.662286         0.100594         1.399794
 H         0.628049         2.772105         0.715344
 H         0.715329         3.052957         2.266275
 H         3.253941         1.941268         1.294780
 H        -0.904231        -1.352455         0.467378
 H        -0.291818        -0.550811        -0.830174
 H         0.682300        -2.021516        -0.451312
 H         2.338844        -0.073167         3.891158
