19
Iteration:  3206
 C        -1.129808         0.765634         2.245790
 C         0.271399         0.903056         1.793113
 C         0.935649         2.277149         1.491721
 C         2.226377         1.392444         1.140407
 O         1.718229         0.708601        -0.012317
 C         0.945216        -0.090042         0.787353
 C         0.268215        -1.165350         0.101749
 C         1.558142         0.258077         2.097531
 O         2.026998        -0.420639         3.145009
 H        -1.465196         1.435616         2.976374
 H        -1.688579         0.868456         1.275450
 H        -1.297776        -0.184096         2.685900
 H         0.554084         2.932918         0.681016
 H         1.213687         2.703618         2.430529
 H         3.303773         1.777547         1.067879
 H        -0.696334        -1.401657         0.549376
 H         0.057008        -0.662058        -0.854119
 H         0.827196        -2.154458        -0.111562
 H         2.918354        -0.772163         3.005764
