19
Iteration:  2508
 C        -1.143953         0.843084         2.408669
 C         0.199548         0.985963         1.794140
 C         0.974543         2.308771         1.513873
 C         2.151325         1.439392         1.151086
 O         1.868560         0.683670        -0.073592
 C         0.903833        -0.012159         0.657751
 C         0.350050        -1.262331         0.100405
 C         1.460685         0.237751         2.085118
 O         2.058223        -0.558751         3.012549
 H        -1.844600         1.653396         2.512272
 H        -1.587716        -0.059521         1.807777
 H        -0.981250         0.427531         3.468206
 H         0.681073         3.197519         0.960508
 H         0.989341         2.576758         2.587569
 H         3.159341         1.947445         1.346255
 H        -0.481037        -1.897556         0.709112
 H        -0.125859        -1.095907        -0.925324
 H         1.278322        -1.847475        -0.221224
 H         1.891564        -0.147716         3.900619
