19
Iteration:  1272charge 0 multiplicity 1
 C        -1.064754         0.683918         2.371995
 C         0.212664         0.958347         1.777879
 C         0.940306         2.280773         1.509695
 C         2.081569         1.417056         1.172485
 O         1.912064         0.780570        -0.033222
 C         0.937564        -0.032024         0.703935
 C         0.222477        -1.093796         0.018590
 C         1.617390         0.183144         2.053026
 O         2.050963        -0.585132         3.109164
 H        -0.997024         0.217318         3.390915
 H        -1.722780         1.587689         2.294227
 H        -1.706738         0.013485         1.704889
 H         0.612008         3.002825         0.626622
 H         0.977380         2.760366         2.521648
 H         2.962251         1.975753         1.387064
 H        -0.459806        -1.586270         0.648709
 H        -0.489264        -0.635818        -0.671100
 H         0.950385        -1.759341        -0.628727
 H         1.667555        -0.236284         3.929672
