19
Iteration:  1800charge 0 multiplicity 1
 C        -1.152850         0.830501         2.401011
 C         0.202629         0.989735         1.841826
 C         0.896860         2.248121         1.414974
 C         2.160792         1.454589         1.126570
 O         1.905011         0.764628        -0.056328
 C         0.865166        -0.006171         0.686921
 C         0.536535        -1.354265         0.163948
 C         1.510880         0.311495         2.058138
 O         1.917418        -0.607831         2.999784
 H        -0.970009         0.630462         3.559506
 H        -1.819424         1.697195         2.375535
 H        -1.707316         0.020733         1.993319
 H         0.382899         2.975717         0.672441
 H         1.219789         2.911574         2.244301
 H         3.103779         1.986914         1.372475
 H         0.045795        -1.891737         1.082234
 H        -0.339315        -1.422825        -0.647732
 H         1.417653        -1.813388        -0.177852
 H         1.824434        -0.054198         3.810498
