19
Iteration:  1276charge 0 multiplicity 1
 C        -1.097894         0.668058         2.338505
 C         0.231797         0.925758         1.791990
 C         0.909285         2.282105         1.469149
 C         2.117065         1.396219         1.187383
 O         1.877911         0.783239        -0.047719
 C         0.987192        -0.019645         0.727261
 C         0.213205        -1.049173         0.022211
 C         1.628561         0.182956         2.076331
 O         2.057286        -0.605359         3.126939
 H        -1.063308         0.241844         3.368592
 H        -1.703905         1.557603         2.336993
 H        -1.706518         0.060221         1.721907
 H         0.563864         3.067679         0.777837
 H         0.978937         2.778294         2.402638
 H         3.083962         2.044028         1.130614
 H        -0.546791        -1.593588         0.606953
 H        -0.490000        -0.590277        -0.772019
 H         0.878114        -1.653613        -0.449213
 H         1.740940        -0.161020         3.965334
