19
Iteration:    55charge 0 multiplicity 1
 C        -1.057549         0.877810         2.461971
 C         0.185455         1.038573         1.709877
 C         0.937244         2.297163         1.429786
 C         2.188268         1.521629         1.154189
 O         1.841174         0.723992        -0.122232
 C         0.908876        -0.015310         0.753438
 C         0.582620        -1.511514         0.249693
 C         1.508641         0.402857         2.062607
 O         1.775268        -0.607986         2.981168
 H        -0.941769         1.211192         3.444443
 H        -1.939181         1.355100         2.087937
 H        -1.226625        -0.156123         2.393748
 H         0.619167         2.861576         0.610197
 H         1.072395         2.715903         2.399191
 H         3.120441         2.102869         1.071920
 H         0.347851        -2.233139         0.998098
 H        -0.256678        -1.459816        -0.430387
 H         1.437853        -1.818215        -0.330366
 H         1.411595        -0.526320         3.854227
