19
Iteration:  3497charge 0 multiplicity 1
 C        -1.103674         0.684699         2.348943
 C         0.260905         1.014395         1.890407
 C         0.921025         2.300080         1.478972
 C         2.185858         1.415095         1.171291
 O         1.825074         0.733208        -0.150109
 C         1.008553        -0.091722         0.727336
 C         0.296472        -1.210463        -0.030225
 C         1.545130         0.290694         2.069999
 O         2.018293        -0.473294         3.184542
 H        -1.501745         1.394260         3.150707
 H        -1.724158         0.432651         1.559758
 H        -1.065816        -0.261436         2.911317
 H         0.266242         2.731851         0.689887
 H         1.084780         3.055100         2.354575
 H         3.194081         1.868900         1.342643
 H        -0.364179        -1.737647         0.612862
 H        -0.473515        -0.854609        -0.778106
 H         0.990118        -1.970022        -0.375785
 H         1.296940        -0.406644         3.809652
