19
Iteration:  2279charge 0 multiplicity 1
 C        -1.153808         0.712704         2.218863
 C         0.206382         0.925226         1.738710
 C         0.880406         2.328065         1.499019
 C         2.165478         1.480085         1.276964
 O         1.879539         0.723398        -0.097897
 C         0.928030        -0.075839         0.794186
 C         0.101855        -1.199142         0.146087
 C         1.632716         0.256545         2.047521
 O         2.184796        -0.529256         3.069340
 H        -1.400470         1.411417         3.002851
 H        -1.863473         0.930380         1.373245
 H        -1.305992        -0.274471         2.692486
 H         0.568606         3.009566         0.703729
 H         0.901622         2.785975         2.489409
 H         3.252756         1.696807         1.329815
 H        -0.568383        -1.692435         0.887771
 H        -0.315916        -0.800360        -0.710715
 H         0.727894        -1.983671        -0.147836
 H         2.407467        -0.083103         3.886526
