19
Iteration:  3134charge 0 multiplicity 1
 C        -1.081491         0.753286         2.497377
 C         0.147561         1.007714         1.635436
 C         0.962721         2.363560         1.390693
 C         2.178846         1.453164         1.189039
 O         1.895381         0.703104        -0.106379
 C         0.882517        -0.001794         0.716272
 C         0.404605        -1.276102         0.192583
 C         1.561218         0.307808         2.010565
 O         1.878375        -0.519818         3.131621
 H        -0.964345         0.768959         3.660947
 H        -1.788958         1.408004         2.062957
 H        -1.460844        -0.305517         2.442084
 H         0.712655         3.059081         0.612854
 H         1.021898         2.736969         2.431272
 H         3.187051         1.717087         1.239569
 H         0.060995        -1.885747         1.053508
 H        -0.304540        -1.296643        -0.643787
 H         1.324605        -1.739333        -0.023043
 H         1.713817        -1.435223         2.882047
