19
Iteration:  2646
 C        -1.306841         0.778449         2.165327
 C         0.261540         0.928772         1.914735
 C         0.921951         2.310823         1.592776
 C         2.167441         1.418392         1.145129
 O         1.816850         0.718836        -0.040457
 C         1.013180        -0.134459         0.782495
 C         0.170869        -1.107700         0.110048
 C         1.580429         0.248957         2.070479
 O         2.254342        -0.602001         3.012578
 H        -1.796915         0.364931         1.249707
 H        -1.717731         0.182045         3.010983
 H        -1.650196         1.796838         2.227763
 H         0.531696         3.077652         0.906468
 H         1.205860         2.756700         2.556493
 H         3.255396         1.807954         1.332222
 H        -0.612623        -1.406553         0.762451
 H        -0.384316        -0.573873        -0.678233
 H         0.758413        -1.851339        -0.418569
 H         2.139571        -0.112885         3.836566
