19
Iteration:   991
 C        -1.041276         0.768972         2.395347
 C         0.244238         0.970075         1.794004
 C         0.932340         2.271946         1.563992
 C         2.165311         1.505323         1.152113
 O         1.818419         0.779593        -0.034677
 C         0.894891         0.003903         0.728474
 C         0.342621        -1.169133         0.073609
 C         1.605177         0.255279         2.029344
 O         1.902908        -0.711912         2.985131
 H        -1.060973         0.114722         3.323613
 H        -1.592454         1.688199         2.610506
 H        -1.512531         0.118898         1.659569
 H         0.584511         2.915153         0.784475
 H         1.085447         2.815676         2.504541
 H         3.178012         2.057357         1.202368
 H         0.100569        -1.829823         0.848431
 H        -0.502550        -1.194630        -0.619561
 H         1.129413        -1.554753        -0.526278
 H         1.884517        -0.252975         3.867687
