19
Iteration:  2665charge 0 multiplicity 1
 C        -1.251009         0.832163         2.176746
 C         0.155914         1.015939         1.918133
 C         0.978364         2.303103         1.634504
 C         2.142446         1.410612         1.295751
 O         1.882587         0.669721        -0.005340
 C         0.954634        -0.064659         0.723714
 C         0.132324        -1.207858         0.045489
 C         1.525976         0.210390         2.061009
 O         2.319873        -0.519359         2.930963
 H        -1.754849         0.340820         1.274249
 H        -1.270876         0.142563         2.969501
 H        -1.874869         1.670342         2.456345
 H         0.513839         2.814418         0.818651
 H         1.183230         2.991839         2.387342
 H         3.266999         1.861998         1.278142
 H        -0.622455        -1.632681         0.633930
 H        -0.445942        -0.843096        -0.802943
 H         0.794146        -2.035551        -0.187846
 H         1.881038        -0.474105         3.810526
