19
Iteration:   296charge 0 multiplicity 1
 C        -1.174423         0.825413         2.256279
 C         0.184460         0.953138         1.631337
 C         0.935780         2.303423         1.443114
 C         2.119662         1.378279         1.180497
 O         1.845547         0.767151        -0.043042
 C         0.891494        -0.016118         0.747576
 C         0.354631        -1.315740         0.290447
 C         1.539374         0.296637         2.071490
 O         2.057667        -0.507228         3.095996
 H        -1.169931         0.721603         3.310185
 H        -2.057032         1.334572         1.826593
 H        -1.446249        -0.243034         1.979175
 H         0.855363         3.051654         0.658486
 H         1.042703         2.675745         2.487944
 H         3.092978         1.972707         1.383001
 H        -0.060535        -1.851042         1.200592
 H        -0.483511        -1.199150        -0.368040
 H         1.103547        -1.947494        -0.068351
 H         3.012831        -0.528480         3.002732
