19
Iteration:  4584charge 0 multiplicity 1
 C        -1.076358         0.638406         2.446867
 C         0.175190         1.019512         1.747320
 C         0.893293         2.225485         1.469881
 C         2.193202         1.443714         1.183018
 O         1.834458         0.744203        -0.082208
 C         0.925110        -0.007313         0.738953
 C         0.310743        -1.228044         0.061246
 C         1.510347         0.242207         2.080073
 O         2.104110        -0.402936         3.063164
 H        -1.076280         1.088561         3.443787
 H        -2.011094         1.030438         1.882161
 H        -1.227195        -0.438411         2.505093
 H         0.422038         2.735408         0.578128
 H         0.995489         2.929272         2.256907
 H         3.162580         1.986504         1.316685
 H         0.515928        -1.146979        -1.013580
 H         0.833058        -2.075790         0.401035
 H        -0.774504        -1.387885         0.297920
 H         1.529139        -0.940109         3.616522
