19
Iteration:  1888
 C        -1.177411         0.571584         2.184736
 C         0.237246         0.953362         1.823599
 C         0.961462         2.331675         1.498067
 C         2.254305         1.499263         1.115559
 O         1.823364         0.743707         0.021221
 C         0.949993        -0.092279         0.829322
 C         0.194716        -1.154636         0.107551
 C         1.557221         0.285969         2.087206
 O         2.115018        -0.543547         3.071824
 H        -1.868513         1.454301         2.466274
 H        -1.662715         0.399640         1.275513
 H        -1.087421        -0.126133         2.956946
 H         0.324174         2.952038         0.688695
 H         1.094122         2.950796         2.402831
 H         3.240154         1.895364         1.073414
 H        -0.583171        -1.691363         0.742790
 H        -0.623042        -0.646568        -0.642740
 H         0.798806        -1.933557        -0.328725
 H         2.191520         0.039785         3.839454
