19
Iteration:  4952charge 0 multiplicity 1
 C        -1.071865         0.686604         2.444903
 C         0.263640         0.992111         1.837197
 C         0.937825         2.320629         1.506290
 C         2.167239         1.507259         1.108884
 O         1.768519         0.783159        -0.122221
 C         0.902310         0.000682         0.708280
 C         0.488046        -1.363649         0.134904
 C         1.562550         0.332987         2.050751
 O         1.822523        -0.527414         3.087477
 H        -1.023799         0.890875         3.478459
 H        -1.777401         1.354639         2.024291
 H        -1.456074        -0.309319         2.183884
 H         0.553691         3.032211         0.829424
 H         1.179829         2.940727         2.402490
 H         3.099470         2.136139         1.102112
 H         0.138168        -1.409718        -0.894649
 H         1.407742        -2.144804         0.115874
 H        -0.384861        -1.765616         0.794549
 H         2.356891        -1.286507         2.736611
