19
Iteration:  2306charge 0 multiplicity 1
 C        -1.149246         0.662646         2.370697
 C         0.163137         0.983361         1.752776
 C         0.995930         2.336486         1.477345
 C         2.198035         1.430844         1.170194
 O         1.937906         0.712393        -0.038145
 C         0.872622        -0.008424         0.765334
 C         0.270363        -1.206439         0.187357
 C         1.480382         0.242471         2.002354
 O         2.028140        -0.507918         3.010649
 H        -1.285103         0.879125         3.497719
 H        -1.924443         1.257442         1.899500
 H        -1.301710        -0.410644         2.260321
 H         0.679671         2.963775         0.586950
 H         1.068691         2.939700         2.419580
 H         3.239152         1.718411         0.948749
 H         0.015238        -1.860600         1.022894
 H        -0.569513        -0.912144        -0.654538
 H         1.071073        -1.856515        -0.377903
 H         2.135155        -0.040946         3.831097
