19
Iteration:  3762charge 0 multiplicity 1
 C        -1.208786         0.683020         2.432600
 C         0.163427         0.989427         1.792018
 C         0.974606         2.288584         1.458885
 C         2.266427         1.409318         1.169031
 O         1.827011         0.836156        -0.047881
 C         0.903111         0.020905         0.658300
 C         0.371718        -1.290562         0.134204
 C         1.584400         0.272488         2.039808
 O         1.991568        -0.545619         3.018177
 H        -1.513176         1.514268         3.237160
 H        -2.034832         0.797042         1.732468
 H        -1.196034        -0.245320         2.966164
 H         0.712583         2.891653         0.627507
 H         1.118530         2.874864         2.370277
 H         3.328025         1.802003         1.092067
 H        -0.058928        -1.872891         1.016365
 H        -0.301104        -1.400233        -0.737763
 H         1.172148        -1.975590        -0.193266
 H         1.576421        -0.266819         3.849497
