19
Iteration:   974
 C        -1.216383         0.712834         2.357621
 C         0.207058         0.980040         1.782968
 C         1.003205         2.364702         1.581443
 C         2.245391         1.414947         1.249348
 O         1.802764         0.843070        -0.059201
 C         0.935121        -0.004475         0.692475
 C         0.307637        -1.274107         0.066979
 C         1.524500         0.212489         2.029097
 O         2.061869        -0.616984         2.966826
 H        -1.140269         0.047673         3.195212
 H        -1.534082         1.702682         2.752186
 H        -2.082808         0.439100         1.741823
 H         0.702215         3.166539         0.833355
 H         1.126486         2.921398         2.549861
 H         3.282139         1.649748         1.257067
 H        -0.126773        -2.031249         0.861684
 H        -0.471905        -0.833036        -0.556272
 H         1.058976        -1.939843        -0.453498
 H         1.835034        -0.377174         3.879136
