19
Iteration:  1742
 C        -1.144351         0.686747         2.388835
 C         0.210367         0.927620         1.712147
 C         0.887075         2.348482         1.502757
 C         2.227282         1.491441         1.121214
 O         1.937947         0.755004        -0.071112
 C         0.917179         0.025075         0.685825
 C         0.374823        -1.328311         0.194128
 C         1.611455         0.235705         1.978983
 O         1.875164        -0.497544         3.065445
 H        -0.974535         0.355984         3.490173
 H        -1.619723         1.621223         2.701825
 H        -1.860228        -0.148851         2.213803
 H         0.575844         2.902959         0.600107
 H         0.895202         3.023835         2.470869
 H         3.196867         1.994435         1.226296
 H        -0.260059        -1.794630         0.956639
 H        -0.254888        -1.396915        -0.747224
 H         1.302909        -2.067363         0.038019
 H         1.544318        -0.008439         3.831426
