19
Iteration:   382
 C        -1.135326         0.643222         2.306281
 C         0.131962         0.898747         1.679202
 C         0.933649         2.267106         1.469767
 C         2.219016         1.341080         1.207790
 O         1.869890         0.722963        -0.021934
 C         0.886617        -0.038343         0.666974
 C         0.238560        -1.207522         0.048812
 C         1.535541         0.307137         2.111113
 O         2.145654        -0.363401         3.135494
 H        -1.329633         1.633056         2.718469
 H        -1.964715         0.227328         1.692579
 H        -0.963810         0.060942         3.214775
 H         0.603178         3.037821         0.700309
 H         0.958598         2.723395         2.512186
 H         3.150441         1.902064         1.413915
 H        -0.572425        -1.622129         0.713946
 H        -0.218637        -1.022367        -0.976499
 H         0.995610        -1.955901        -0.057937
 H         1.936573        -0.033411         4.077158
