19
Iteration:  1825charge 0 multiplicity 1
 C        -1.208851         0.822314         2.342585
 C         0.162047         0.921722         1.649108
 C         0.889292         2.325013         1.514653
 C         2.214054         1.517176         1.294637
 O         1.858430         0.714160        -0.079891
 C         0.977253        -0.091067         0.707627
 C         0.347893        -1.344812         0.182187
 C         1.547198         0.296597         2.044755
 O         2.095494        -0.547334         3.005155
 H        -1.154189         0.893328         3.457167
 H        -1.963300         1.539110         1.958647
 H        -1.764029        -0.098647         2.016786
 H         0.594698         3.106724         0.805651
 H         0.883651         2.830522         2.453942
 H         3.182293         1.886251         1.487909
 H        -0.190848        -1.810992         0.968718
 H        -0.400062        -1.074739        -0.544755
 H         1.077296        -2.018045        -0.337123
 H         1.891354        -0.049755         3.804133
