19
Iteration:  1364
 C        -1.144334         0.829272         2.352377
 C         0.238035         0.962540         1.796578
 C         0.923452         2.350075         1.577821
 C         2.157969         1.476886         1.219452
 O         1.845376         0.817555        -0.039274
 C         0.946591        -0.006995         0.681997
 C         0.425819        -1.309821         0.136316
 C         1.543645         0.256373         2.048118
 O         1.963953        -0.700225         2.927142
 H        -1.433168        -0.230579         2.454434
 H        -1.196065         1.341464         3.323645
 H        -1.833598         1.345235         1.690133
 H         0.538269         2.867435         0.703171
 H         0.854490         2.784574         2.536257
 H         3.258355         1.765163         1.083793
 H        -0.249253        -1.705884         0.953478
 H        -0.219492        -1.160353        -0.753432
 H         1.119501        -2.042403        -0.051376
 H         1.679171        -0.302531         3.805741
