19
Iteration:   156charge 0 multiplicity 1
 C        -1.212272         0.636686         2.144961
 C         0.270642         0.922078         1.834659
 C         0.950885         2.273894         1.449189
 C         2.203135         1.402191         1.234890
 O         1.786409         0.721904        -0.009548
 C         0.903727        -0.104762         0.731796
 C         0.134292        -1.206544         0.079812
 C         1.628149         0.295082         2.055096
 O         2.238240        -0.343459         3.169212
 H        -1.563538         1.411909         2.762451
 H        -1.701293         0.577570         1.232898
 H        -1.426993        -0.264500         2.770178
 H         0.627448         2.846788         0.602027
 H         1.083563         2.988551         2.290351
 H         3.308872         1.711261         1.252864
 H        -0.818518        -1.404900         0.711782
 H        -0.207247        -0.897214        -0.835596
 H         0.665583        -2.131955         0.062526
 H         1.666062        -0.272212         3.945440
