19
Iteration:   279
 C        -1.158438         0.759858         2.338451
 C         0.146161         1.006450         1.727545
 C         0.931979         2.342622         1.516903
 C         2.222715         1.477776         1.242582
 O         1.908961         0.729711        -0.104017
 C         0.974135        -0.050152         0.621626
 C         0.357334        -1.402895         0.311118
 C         1.464272         0.255496         1.949821
 O         1.934050        -0.478575         3.050513
 H        -1.114780         0.983843         3.459983
 H        -1.758982         1.632470         2.113310
 H        -1.637141        -0.227449         2.209903
 H         0.465933         2.980639         0.729500
 H         0.983375         3.048897         2.345495
 H         3.306875         1.697960         1.276184
 H         0.146216        -1.934377         1.291328
 H        -0.507717        -1.417330        -0.382027
 H         1.133938        -2.047529        -0.277190
 H         2.789233        -0.163061         3.295327
