19
Iteration:  1643charge 0 multiplicity 1
 C        -1.166506         0.750774         2.233590
 C         0.217526         0.916422         1.662632
 C         0.939143         2.318833         1.506025
 C         2.142443         1.562603         1.319527
 O         1.927120         0.712095        -0.051972
 C         0.902354        -0.086293         0.743289
 C         0.260645        -1.305019         0.169939
 C         1.530391         0.245117         2.018297
 O         2.105943        -0.474206         3.044867
 H        -1.080853         0.862456         3.353877
 H        -2.086238         1.323907         2.008256
 H        -1.643175        -0.259754         2.304642
 H         0.458834         2.753453         0.672152
 H         0.721557         2.789096         2.552943
 H         3.091836         1.993941         1.197970
 H         0.076102        -1.973357         0.952168
 H        -0.509236        -1.052071        -0.527789
 H         1.102172        -1.870700        -0.413145
 H         1.995723         0.039103         3.876591
