19
Iteration:  4619charge 0 multiplicity 1
 C        -1.126218         0.620363         2.332788
 C         0.187610         0.933992         1.716039
 C         0.878429         2.261977         1.501804
 C         2.166315         1.457784         1.252392
 O         1.870790         0.722858        -0.091434
 C         0.955022        -0.090108         0.743147
 C         0.114969        -1.199032         0.009680
 C         1.555660         0.271505         2.051072
 O         2.227965        -0.311638         3.198225
 H        -1.228176         1.284756         3.256116
 H        -2.053538         0.786619         1.640444
 H        -1.110195        -0.446102         2.785723
 H         0.463322         2.911774         0.679764
 H         1.004807         2.817040         2.525744
 H         3.112211         1.987636         1.207369
 H         0.316591        -1.127649        -1.056414
 H         0.458278        -2.230523         0.376074
 H        -0.913965        -1.115699         0.109227
 H         2.157244        -1.273911         3.198341
