19
Iteration:  1201charge 0 multiplicity 1
 C        -1.044644         0.760869         2.425206
 C         0.231704         0.909235         1.805251
 C         0.992341         2.338395         1.551323
 C         2.214582         1.524407         1.121489
 O         1.779924         0.892075        -0.052791
 C         0.870518         0.005814         0.768101
 C         0.462428        -1.273448         0.053978
 C         1.649337         0.264782         2.044249
 O         1.775489        -0.751081         2.978592
 H        -1.205180         1.255964         3.372222
 H        -1.672865         1.212647         1.666301
 H        -1.458391        -0.243749         2.473787
 H         0.604100         3.036968         0.827340
 H         1.142007         2.823182         2.582126
 H         3.352483         1.655235         1.004230
 H         0.076389        -2.012969         0.906485
 H        -0.557721        -1.128500        -0.437140
 H         1.172405        -1.688079        -0.575987
 H         1.698357        -0.287261         3.837500
