19
Iteration:  2299charge 0 multiplicity 1
 C        -1.146989         0.677361         2.335684
 C         0.162581         0.988996         1.730437
 C         0.967021         2.299822         1.504738
 C         2.212603         1.428906         1.166710
 O         1.949036         0.699933        -0.003913
 C         0.834763         0.004097         0.667226
 C         0.214606        -1.200662         0.151534
 C         1.513723         0.284363         2.111517
 O         2.091752        -0.516233         3.016389
 H        -1.229673         0.932714         3.328711
 H        -1.991141         1.102050         1.692491
 H        -1.284247        -0.429191         2.326565
 H         0.586238         2.853893         0.692090
 H         1.126357         2.825442         2.422975
 H         3.179394         1.852653         1.008544
 H        -0.169652        -1.744729         1.044907
 H        -0.519660        -1.059766        -0.526204
 H         0.888273        -1.911718        -0.261247
 H         2.224785         0.086272         3.764682
