19
Iteration:   924charge 0 multiplicity 1
 C        -1.160937         0.764993         2.229825
 C         0.258227         0.959866         1.863139
 C         0.908694         2.242908         1.602966
 C         2.103775         1.513805         1.195213
 O         1.792128         0.757873        -0.089994
 C         0.987072        -0.069129         0.796779
 C         0.162129        -1.179873         0.113421
 C         1.684839         0.243482         2.077156
 O         2.200873        -0.608865         3.017620
 H        -1.555599        -0.205520         1.773618
 H        -1.526350         1.004751         3.272818
 H        -1.773450         1.401377         1.504604
 H         0.420307         2.926340         0.879673
 H         1.008873         2.852416         2.480542
 H         3.164004         1.937304         1.201566
 H        -0.628275        -1.516957         0.690612
 H        -0.185152        -0.730160        -0.854491
 H         0.759873        -2.059497        -0.419771
 H         1.674654        -0.470359         3.801044
