19
Iteration:  2858charge 0 multiplicity 1
 C        -1.285747         0.677122         2.246436
 C         0.156294         1.035525         1.780139
 C         0.985443         2.316185         1.501598
 C         2.245205         1.378323         1.218728
 O         1.887714         0.658140        -0.077381
 C         0.887414        -0.010692         0.733684
 C         0.231288        -1.213921         0.147141
 C         1.478535         0.287860         2.057561
 O         2.193673        -0.374114         3.170942
 H        -1.387425         0.626832         3.335777
 H        -2.135326         1.311984         1.862473
 H        -1.432000        -0.409577         1.928680
 H         0.681573         2.978745         0.622933
 H         1.336589         2.851384         2.386313
 H         3.381769         1.456302         1.256249
 H        -0.433893        -1.693651         0.887222
 H        -0.497611        -0.921195        -0.705141
 H         0.979394        -1.927561        -0.330014
 H         2.386653        -1.209412         2.754103
