19
Iteration:  3544
 C        -1.114659         0.659355         2.382699
 C         0.178957         0.976567         1.684480
 C         0.881068         2.362508         1.424589
 C         2.182637         1.388267         1.176899
 O         1.923159         0.806839        -0.064617
 C         1.009011         0.011936         0.690122
 C         0.364069        -1.251844         0.236646
 C         1.497866         0.315437         2.020076
 O         1.891632        -0.615031         3.083386
 H        -1.022708         0.928139         3.423800
 H        -1.978598         1.199553         1.851235
 H        -1.384104        -0.342201         2.357973
 H         0.558374         3.070232         0.554321
 H         1.077433         2.976251         2.448610
 H         3.163340         1.842752         1.372028
 H         0.306898        -2.001961         1.041758
 H        -0.623673        -1.158835        -0.079152
 H         0.886444        -1.798035        -0.540671
 H         2.547111        -0.090795         3.587329
