19
Iteration:  3832
 C        -1.239409         0.797871         2.175082
 C         0.128019         0.936307         1.762369
 C         0.892938         2.220656         1.503914
 C         2.195226         1.431701         1.250783
 O         1.854793         0.750556        -0.047415
 C         0.888469         0.037111         0.694675
 C         0.343750        -1.188853         0.307649
 C         1.569290         0.272134         2.067795
 O         2.183256        -0.603831         2.964822
 H        -1.464414         0.694874         3.200208
 H        -1.891014         1.717033         1.984907
 H        -1.874760        -0.072348         1.851414
 H         0.471398         2.681150         0.692323
 H         0.977695         2.818662         2.394346
 H         3.202602         1.791830         1.407014
 H         0.184121        -1.728711         1.242358
 H        -0.605980        -1.142779        -0.259092
 H         1.008230        -1.864395        -0.310900
 H         2.608257        -0.087278         3.674868
