19
Iteration:  4461
 C        -1.224771         0.722826         2.220761
 C         0.170326         0.883960         1.805843
 C         0.866478         2.238729         1.427435
 C         2.172037         1.526431         1.155867
 O         1.820789         0.822555        -0.051323
 C         0.930763         0.001646         0.813873
 C         0.244039        -1.199741         0.214707
 C         1.634601         0.243455         2.092181
 O         2.224713        -0.607990         3.076476
 H        -1.544117         1.467682         2.974273
 H        -1.883696         0.985633         1.245410
 H        -1.463851        -0.327096         2.477373
 H         0.592444         2.902746         0.541975
 H         1.194259         2.982639         2.155802
 H         3.145649         2.092421         1.045743
 H        -0.842399        -1.272210         0.156083
 H         0.697129        -1.283815        -0.799665
 H         0.620613        -2.094550         0.792407
 H         1.800801        -0.654315         3.954296
