19
Iteration:  4539
 C        -1.033521         0.767992         2.397138
 C         0.250304         0.909319         1.821209
 C         0.918940         2.257579         1.508754
 C         2.136455         1.552801         1.145613
 O         1.738615         0.862443        -0.111540
 C         0.918546        -0.044666         0.689194
 C         0.488656        -1.386587         0.193528
 C         1.541528         0.280314         2.016999
 O         1.898506        -0.586361         3.042147
 H        -1.043606         0.994431         3.465806
 H        -1.797218         1.348722         1.737046
 H        -1.270331        -0.264846         2.246288
 H         0.484939         2.915284         0.685919
 H         0.947803         2.759990         2.428672
 H         3.164576         2.013912         1.082704
 H         0.067789        -1.085328        -0.776801
 H         1.205998        -2.093869         0.056111
 H        -0.325086        -1.817505         0.914687
 H         2.270989         0.011748         3.706327
