19
Iteration:  4903charge 0 multiplicity 1
 C        -1.029617         0.764831         2.458825
 C         0.270552         0.896138         1.765715
 C         0.817053         2.326167         1.469782
 C         2.162663         1.455584         1.184128
 O         1.845224         0.865490        -0.007603
 C         0.936744        -0.054021         0.683737
 C         0.350321        -1.355990         0.123153
 C         1.544568         0.267104         2.004382
 O         1.903531        -0.487926         3.080266
 H        -1.000293         1.393528         3.406933
 H        -1.866072         0.960529         1.711158
 H        -1.227901        -0.273235         2.772975
 H         0.586329         2.869171         0.425869
 H         0.781633         3.024528         2.325181
 H         3.251275         1.680267         1.314036
 H         0.012928        -1.122181        -0.940934
 H         1.251040        -2.109681        -0.145613
 H        -0.488972        -1.784745         0.627122
 H         2.643227        -1.026344         2.780738
