19
Iteration:  3516
 C        -1.039459         0.632328         2.385244
 C         0.233231         0.953919         1.733233
 C         0.914463         2.344146         1.445111
 C         2.226351         1.521968         1.175457
 O         1.881330         0.700707         0.011909
 C         0.930023        -0.037242         0.740578
 C         0.295217        -1.206854         0.098780
 C         1.532440         0.269067         2.017237
 O         1.935959        -0.534610         3.081281
 H        -1.236563         1.286808         3.249841
 H        -1.848345         0.724713         1.620739
 H        -1.265761        -0.427413         2.800923
 H         0.603934         2.911077         0.594742
 H         0.981801         2.904085         2.306069
 H         3.113378         2.159069         1.074487
 H        -0.170369        -2.081181         0.633605
 H        -0.629254        -0.946072        -0.520028
 H         1.070598        -1.744917        -0.500894
 H         1.759476         0.067043         3.813230
