19
Iteration:  2089
 C        -1.234062         0.679982         2.224952
 C         0.247882         0.884426         1.733204
 C         0.978329         2.239049         1.611588
 C         2.208542         1.462401         1.224954
 O         1.802549         0.723407        -0.046344
 C         0.917406        -0.051741         0.725534
 C         0.182474        -1.101667         0.079900
 C         1.573596         0.273681         2.106669
 O         2.158498        -0.518273         3.038802
 H        -2.051873         0.720995         1.420750
 H        -1.362356        -0.112148         3.001181
 H        -1.420492         1.625121         2.787849
 H         0.596976         2.969269         0.839108
 H         1.115245         2.767446         2.618896
 H         3.334571         1.841757         1.006318
 H        -0.319953        -1.753953         0.890919
 H        -0.488993        -0.733679        -0.682385
 H         0.977777        -1.810850        -0.491160
 H         2.314923        -0.193665         3.955597
