19
Iteration:  2561
 C        -0.979077         0.763435         2.503012
 C         0.230906         1.022637         1.748359
 C         0.938035         2.374662         1.501262
 C         2.199352         1.471633         1.121094
 O         1.871861         0.753354        -0.090113
 C         0.918717         0.026049         0.667592
 C         0.392369        -1.270880         0.119994
 C         1.532255         0.270217         2.034125
 O         1.789510        -0.695854         3.032949
 H        -1.954160         0.974298         2.124824
 H        -1.016375        -0.335745         2.806743
 H        -0.750790         1.343425         3.417211
 H         0.626759         2.932178         0.580578
 H         0.921875         3.010900         2.445488
 H         3.059384         1.958925         1.176736
 H         0.214195        -1.985946         1.026392
 H        -0.404974        -1.292586        -0.663134
 H         1.181959        -1.793790        -0.487420
 H         1.304238        -0.384583         3.842702
