19
Iteration:  1657charge 0 multiplicity 1
 C        -1.167368         0.730688         2.237136
 C         0.192376         0.921911         1.740500
 C         0.804135         2.269894         1.452636
 C         2.157840         1.419997         1.208389
 O         1.865221         0.718941         0.019008
 C         0.952415        -0.080368         0.762900
 C         0.271979        -1.247575         0.089302
 C         1.595667         0.286628         2.085281
 O         2.179732        -0.446580         3.098015
 H        -1.262572         0.699446         3.368061
 H        -1.656757         1.577446         1.761536
 H        -1.589783        -0.121720         1.740051
 H         0.551122         3.024491         0.653839
 H         0.904042         2.862187         2.341548
 H         3.164356         1.834644         1.361810
 H        -0.238555        -1.931348         0.808763
 H        -0.621603        -0.893957        -0.573847
 H         0.915105        -1.788613        -0.493262
 H         1.998481         0.002989         3.958234
