19
Iteration:  2345
 C        -1.016460         0.818906         2.470316
 C         0.293589         0.951391         1.727529
 C         0.919070         2.324781         1.431970
 C         2.195517         1.568468         1.008641
 O         1.809048         0.806977        -0.037981
 C         0.895834        -0.069696         0.701571
 C         0.433958        -1.300641         0.182857
 C         1.562386         0.143017         2.032421
 O         1.822409        -0.637775         3.112774
 H        -0.857039         0.760802         3.552240
 H        -1.555978         1.751293         2.251569
 H        -1.704978        -0.022467         2.268993
 H         0.554710         2.886858         0.556224
 H         0.892327         2.827764         2.401128
 H         3.197292         2.171482         1.067859
 H         0.421330        -2.158358         0.880667
 H        -0.390358        -1.226441        -0.425833
 H         1.165561        -1.536718        -0.532538
 H         1.322352        -0.160471         3.825080
