19
Iteration:  3723
 C        -1.057015         0.670013         2.533546
 C         0.223039         0.920608         1.635599
 C         0.812598         2.276102         1.446377
 C         2.245652         1.489138         1.140406
 O         1.939254         0.684567         0.018759
 C         0.887167        -0.054912         0.711277
 C         0.256016        -1.155792        -0.022061
 C         1.668005         0.287776         2.055868
 O         1.879755        -0.509110         3.091778
 H        -1.257995         1.535190         3.041479
 H        -1.849892         0.188774         1.889825
 H        -0.760920        -0.128024         3.289593
 H         0.287620         3.036264         0.690714
 H         0.837280         2.770915         2.468009
 H         3.182201         1.989721         0.992833
 H        -0.581729        -1.457575         0.601506
 H        -0.126259        -0.738376        -0.927658
 H         1.002769        -1.964815         0.037839
 H         2.295389         0.001597         3.840829
