19
Iteration:  3654
 C        -1.203182         0.679233         2.282411
 C         0.146657         0.941736         1.653546
 C         0.907459         2.322488         1.535145
 C         2.194262         1.436499         1.136676
 O         1.886481         0.711885        -0.070238
 C         0.913356        -0.028012         0.702348
 C         0.235931        -1.183269         0.142491
 C         1.587757         0.243879         2.056189
 O         2.209666        -0.465267         3.168617
 H        -1.280162         1.222146         3.231305
 H        -2.073661         0.901217         1.600449
 H        -1.353270        -0.335165         2.513722
 H         0.556323         3.128394         0.913577
 H         0.967674         2.701697         2.607863
 H         3.299273         1.671516         1.275527
 H        -0.631307        -1.531687         0.785757
 H        -0.239112        -0.847154        -0.721428
 H         0.955398        -1.988901         0.044411
 H         1.445583        -0.575109         3.773889
