19
Iteration:  2981charge 0 multiplicity 1
 C        -1.102782         0.674198         2.441108
 C         0.226597         0.892349         1.701347
 C         1.001467         2.281450         1.425942
 C         2.227144         1.390258         1.158406
 O         1.840703         0.822952        -0.098360
 C         0.937399        -0.087699         0.693742
 C         0.281973        -1.237342         0.141991
 C         1.559003         0.320632         2.070972
 O         1.953303        -0.398798         3.189082
 H        -1.391556         1.629253         3.070800
 H        -1.886026         0.681739         1.678403
 H        -1.239904        -0.273062         3.052988
 H         0.625386         2.957180         0.528131
 H         1.077186         2.906943         2.350400
 H         3.160899         1.651985         1.381554
 H        -0.515553        -1.695663         0.770259
 H        -0.337798        -0.865137        -0.815878
 H         0.979383        -2.041407        -0.233794
 H         1.817234        -1.293471         2.877794
