19
Iteration:  2117
 C        -1.122738         0.759276         2.370316
 C         0.259842         0.988698         1.754899
 C         0.922735         2.317268         1.583810
 C         2.178876         1.405152         1.222285
 O         1.891162         0.840647        -0.088064
 C         0.870774        -0.057027         0.649398
 C         0.254847        -1.295747         0.092803
 C         1.558327         0.246450         1.995626
 O         2.014236        -0.546945         3.070926
 H        -2.040031         1.012437         1.843761
 H        -1.187106        -0.300020         2.571696
 H        -1.131844         1.292766         3.327327
 H         0.535734         2.862957         0.726974
 H         1.133244         2.787632         2.513577
 H         3.179023         1.592411         1.271413
 H         0.084658        -2.039043         0.804899
 H        -0.538784        -1.036874        -0.683787
 H         1.020466        -1.741004        -0.419349
 H         1.945928        -0.253937         3.991699
