19
Iteration:  1779
 C        -1.138161         0.766951         2.456846
 C         0.211956         0.992583         1.725105
 C         0.943200         2.407143         1.425817
 C         2.215708         1.516879         1.136384
 O         1.774040         0.762264        -0.075435
 C         0.954687        -0.091824         0.779098
 C         0.557045        -1.351702         0.194499
 C         1.569288         0.346604         2.037312
 O         1.795517        -0.694025         3.032267
 H        -0.750867         0.492094         3.513510
 H        -1.700078         1.715418         2.416240
 H        -1.799308         0.069754         2.008065
 H         0.684666         2.926124         0.428369
 H         0.796828         3.081680         2.245567
 H         3.190072         1.930753         0.819018
 H         0.143163        -2.069507         0.984783
 H        -0.096996        -1.190958        -0.755435
 H         1.460829        -1.754897        -0.101442
 H         1.743990        -0.096363         3.778823
