19
Iteration:  4629
 C        -1.143538         0.655892         2.278518
 C         0.227040         0.901921         1.793938
 C         0.847308         2.199090         1.544589
 C         2.157877         1.446314         1.115885
 O         1.842408         0.693799        -0.031326
 C         0.952819        -0.093036         0.687380
 C         0.179889        -1.101814         0.062667
 C         1.588590         0.258259         2.094468
 O         2.189106        -0.286769         3.187847
 H        -1.340415         1.245511         3.200699
 H        -2.115874         0.606018         1.673470
 H        -1.051204        -0.380606         2.639583
 H         0.464384         2.917776         0.786058
 H         0.978816         2.776828         2.475255
 H         3.188495         1.769988         1.031183
 H         0.398365        -1.047593        -0.999974
 H         0.440792        -2.151523         0.348778
 H        -0.850822        -0.974700         0.202130
 H         2.229543        -1.222134         2.927067
