19
Iteration:  2686charge 0 multiplicity 1
 C        -1.221138         0.756216         2.282609
 C         0.144144         0.969345         1.752402
 C         0.962420         2.292841         1.493070
 C         2.213261         1.343511         1.282782
 O         1.887986         0.773567        -0.011660
 C         0.823983         0.018346         0.764707
 C         0.215947        -1.172951         0.118798
 C         1.566244         0.197313         2.042844
 O         2.237842        -0.526972         2.984409
 H        -1.974245         0.695260         1.448115
 H        -1.354707         0.058358         3.049884
 H        -1.480779         1.708967         2.762829
 H         0.749117         3.038478         0.726710
 H         0.926102         2.734476         2.457049
 H         3.290959         1.658772         1.250930
 H        -0.492896        -1.724798         0.683868
 H        -0.293131        -0.858841        -0.800790
 H         0.992921        -1.931961        -0.010541
 H         1.734356        -0.936851         3.729484
