19
Iteration:  1290
 C        -1.185214         0.629150         2.287845
 C         0.288480         0.891231         1.794485
 C         0.897117         2.246747         1.533541
 C         2.314086         1.556371         1.161986
 O         1.789897         0.745497        -0.055264
 C         0.955617        -0.056731         0.761897
 C         0.176260        -1.020038        -0.004305
 C         1.621757         0.257369         2.098892
 O         2.052701        -0.612633         3.129058
 H        -1.185159         0.166916         3.239400
 H        -1.641781         1.636161         2.338618
 H        -1.784014        -0.039443         1.622698
 H         0.458527         2.551446         0.624548
 H         1.011666         2.905849         2.443677
 H         3.424327         1.782877         1.200098
 H        -0.615100        -1.502642         0.741041
 H        -0.227841        -0.429584        -0.811023
 H         0.756738        -1.885730        -0.452921
 H         2.067705        -0.124077         3.973277
