19
Iteration:  2052charge 0 multiplicity 1
 C        -1.192897         0.661322         2.160983
 C         0.260618         0.919489         1.925640
 C         0.948638         2.347344         1.494032
 C         2.188179         1.517106         1.240741
 O         1.790115         0.751594         0.012101
 C         1.017077        -0.017566         0.767541
 C         0.112330        -1.115337         0.104664
 C         1.595957         0.218959         2.120204
 O         2.190728        -0.626114         2.975373
 H        -1.856423         0.212833         1.270654
 H        -1.368765        -0.121713         2.904947
 H        -1.593048         1.603497         2.571360
 H         0.586544         2.636111         0.493217
 H         1.003501         3.144793         2.212149
 H         3.163257         1.796702         1.085773
 H        -0.610115        -1.553944         0.745180
 H        -0.382943        -0.709174        -0.882155
 H         0.679231        -1.950555        -0.131576
 H         2.096239        -0.203908         3.881568
