19
Iteration:  3377charge 0 multiplicity 1
 C        -1.214125         0.817581         2.332161
 C         0.224628         0.955750         1.739877
 C         0.918971         2.287916         1.479605
 C         2.218563         1.517900         1.167661
 O         1.862167         0.789408        -0.101664
 C         0.925943        -0.070524         0.781242
 C         0.366280        -1.332854         0.183358
 C         1.551468         0.328403         2.074284
 O         2.010920        -0.573909         3.113813
 H        -1.195495         0.988294         3.494032
 H        -1.963527         1.348721         1.725847
 H        -1.554970        -0.188956         2.157858
 H         0.525552         2.888533         0.567487
 H         0.861647         2.941504         2.490683
 H         3.203607         2.008475         1.107140
 H        -0.249302        -1.775468         0.915265
 H        -0.316327        -0.999361        -0.646887
 H         1.138605        -2.026037        -0.052350
 H         2.241430        -1.436501         2.663114
