19
Iteration:  3050charge 0 multiplicity 1
 C        -1.164816         0.707480         2.240296
 C         0.182111         0.969753         1.727372
 C         0.964627         2.339824         1.495072
 C         2.155412         1.374327         1.277179
 O         1.909446         0.723881        -0.017895
 C         0.945464        -0.107114         0.712345
 C         0.153253        -1.194210         0.134571
 C         1.524520         0.166310         2.062839
 O         2.125685        -0.393711         3.117890
 H        -1.428081         1.590975         2.944413
 H        -1.877788         0.948367         1.328749
 H        -1.301556        -0.252355         2.753008
 H         0.475594         2.756210         0.444281
 H         1.005756         3.023516         2.465213
 H         3.314294         1.413383         1.306904
 H        -0.525940        -1.703617         0.964727
 H        -0.644738        -0.721665        -0.652110
 H         0.761036        -1.989901        -0.420565
 H         3.094913        -0.183115         3.186214
