19
Iteration:   908charge 0 multiplicity 1
 C        -1.255285         0.705053         2.241607
 C         0.278778         0.876245         1.876170
 C         0.917512         2.287876         1.494422
 C         2.264951         1.498119         1.123745
 O         1.759419         0.821159        -0.002539
 C         0.936768        -0.060617         0.794065
 C         0.228025        -1.128009         0.086664
 C         1.662112         0.235037         2.048389
 O         2.142723        -0.644357         3.059686
 H        -1.705139        -0.179433         1.858773
 H        -1.349415         0.552331         3.307352
 H        -1.747267         1.641665         2.062615
 H         0.524238         2.778750         0.571069
 H         1.096249         3.001039         2.352131
 H         3.159885         2.018878         0.933823
 H        -0.688818        -1.527256         0.739164
 H        -0.227740        -0.590939        -0.754309
 H         0.782401        -2.019412        -0.189190
 H         1.895465        -0.234162         3.936190
