19
Iteration:  3140
 C        -1.052149         0.766397         2.492599
 C         0.133216         0.997683         1.631676
 C         0.917949         2.346051         1.424512
 C         2.158409         1.429630         1.234583
 O         1.886386         0.670859        -0.135414
 C         0.930383         0.025107         0.723080
 C         0.423251        -1.264614         0.226667
 C         1.518491         0.287226         2.004755
 O         1.880454        -0.494560         3.104269
 H        -0.901693         0.838195         3.516638
 H        -1.880625         1.444574         2.090307
 H        -1.325803        -0.276364         2.365613
 H         0.745768         3.054626         0.552857
 H         1.172209         2.745353         2.418680
 H         3.282877         1.706414         1.330279
 H        -0.055631        -1.784021         1.057371
 H        -0.277482        -1.126828        -0.602469
 H         1.371469        -1.851879        -0.093638
 H         1.795910        -1.371343         2.715869
