19
Iteration:  1334charge 0 multiplicity 1
 C        -1.212641         0.722964         2.295322
 C         0.167637         0.989260         1.702996
 C         0.970921         2.310017         1.614377
 C         2.150054         1.390704         1.269624
 O         1.919951         0.752577        -0.067503
 C         0.900686         0.051740         0.721874
 C         0.259608        -1.168480         0.093118
 C         1.519988         0.244918         2.055174
 O         2.145549        -0.605457         2.995615
 H        -1.135928        -0.151597         2.893174
 H        -1.537634         1.536782         2.969278
 H        -1.931070         0.367632         1.530071
 H         0.757623         2.976073         0.811635
 H         0.789774         2.740063         2.655241
 H         3.219919         1.731777         1.187413
 H        -0.556134        -1.579890         0.806104
 H        -0.095258        -0.949246        -0.879115
 H         0.871675        -2.139780         0.022119
 H         2.059950        -0.137503         3.828167
