19
Iteration:  2377charge 0 multiplicity 1
 C        -1.041579         0.832476         2.541125
 C         0.211817         0.929829         1.736541
 C         0.944030         2.296505         1.483072
 C         2.209343         1.442717         1.092732
 O         1.851422         0.797083        -0.091797
 C         0.983221        -0.050853         0.716201
 C         0.442237        -1.383901         0.133545
 C         1.458866         0.325944         2.012900
 O         1.816614        -0.556862         3.007713
 H        -0.894862         0.865213         3.569969
 H        -1.622221         1.776187         2.399733
 H        -1.649225        -0.061922         2.287994
 H         0.546897         2.992236         0.749870
 H         0.974379         2.782909         2.453588
 H         3.323628         1.823988         1.097100
 H         0.385696        -2.161782         0.947089
 H        -0.398689        -1.197451        -0.410895
 H         1.129136        -1.868585        -0.528969
 H         1.574975        -0.265911         3.885573
