19
Iteration:   489charge 0 multiplicity 1
 C        -1.238605         0.833574         2.310551
 C         0.170883         0.950069         1.683289
 C         0.919472         2.316231         1.545379
 C         2.104338         1.461887         1.144235
 O         1.879273         0.730995        -0.055417
 C         0.907225        -0.005019         0.689708
 C         0.395045        -1.323834         0.277647
 C         1.546238         0.302779         2.013321
 O         2.123163        -0.612325         3.007549
 H        -1.152469         1.486983         3.263060
 H        -2.079870         1.234211         1.684536
 H        -1.467013        -0.181242         2.609292
 H         0.567608         2.932327         0.710649
 H         1.174723         2.916057         2.384139
 H         3.093398         1.804846         1.333302
 H         0.133669        -1.851808         1.181301
 H        -0.510235        -1.248223        -0.420946
 H         1.221156        -1.945432        -0.160692
 H         1.886883        -0.237066         3.911004
