19
Iteration:  4312charge 0 multiplicity 1
 C        -1.131122         0.792157         2.322285
 C         0.196211         0.974359         1.730929
 C         0.948594         2.343775         1.544706
 C         2.177262         1.401882         1.245738
 O         1.879676         0.750044        -0.107806
 C         0.807740         0.034699         0.759677
 C         0.392693        -1.404636         0.234520
 C         1.589331         0.305014         2.004404
 O         1.975183        -0.564042         2.961811
 H        -1.055023         1.079294         3.439836
 H        -1.907008         1.326119         1.812871
 H        -1.366689        -0.306661         2.330651
 H         0.662259         2.963137         0.699537
 H         1.052388         2.941906         2.445714
 H         3.102772         2.056926         1.280079
 H         0.566325        -2.204695         1.017373
 H        -0.635746        -1.260421        -0.177993
 H         1.186601        -1.525959        -0.660181
 H         1.505967        -0.173936         3.742772
