19
Iteration:  3757
 C        -1.149884         0.714209         2.457098
 C         0.165622         0.969794         1.771513
 C         0.994214         2.281039         1.436327
 C         2.228600         1.417442         1.216145
 O         1.841141         0.831124        -0.062750
 C         0.947437         0.020228         0.687476
 C         0.353280        -1.301568         0.095752
 C         1.522610         0.283590         2.029656
 O         1.984992        -0.538110         3.026611
 H        -1.548447         1.383157         3.163224
 H        -2.054659         0.614112         1.799698
 H        -1.162352        -0.267230         3.027888
 H         0.670479         3.028917         0.552438
 H         1.093219         2.829355         2.396105
 H         3.207188         1.808929         1.055732
 H        -0.137128        -1.720399         0.946038
 H        -0.355154        -1.423194        -0.753355
 H         1.160196        -2.000073        -0.175789
 H         1.727233        -0.311556         3.941964
