19
Iteration:  4332
 C        -1.102537         0.766241         2.507832
 C         0.172821         0.992712         1.761743
 C         0.914493         2.332044         1.379600
 C         2.188451         1.539282         1.113122
 O         1.886792         0.766701        -0.023185
 C         1.102688        -0.057130         0.676971
 C         0.357940        -1.296633         0.148768
 C         1.493349         0.261530         2.053414
 O         1.903814        -0.628653         3.034493
 H        -1.168207         1.119742         3.521307
 H        -1.771924         1.341963         1.905407
 H        -1.518414        -0.176703         2.470098
 H         0.302044         2.779756         0.583595
 H         1.016513         2.928388         2.244193
 H         3.274393         1.854308         1.195596
 H         0.397485        -2.013216         0.975535
 H        -0.607292        -1.196812        -0.223537
 H         1.003326        -1.724080        -0.699056
 H         1.458161        -0.338383         3.853431
