19
Iteration:  2753
 C        -1.030162         0.679088         2.544961
 C         0.208438         0.979487         1.619635
 C         1.011213         2.356153         1.458844
 C         2.227358         1.359615         1.175725
 O         1.800068         0.765224        -0.091193
 C         0.899839        -0.010027         0.636617
 C         0.401074        -1.225586         0.118870
 C         1.465722         0.302565         2.028810
 O         1.863464        -0.479574         3.164118
 H        -1.794834         1.524770         2.532260
 H        -1.493637        -0.235661         2.331958
 H        -0.731161         0.556150         3.565392
 H         0.781689         3.115175         0.721909
 H         1.089994         2.779427         2.426226
 H         3.367354         1.668167         1.136748
 H        -0.082356        -1.832300         0.806131
 H        -0.277411        -0.967985        -0.672212
 H         1.228101        -1.827780        -0.201608
 H         1.644849        -1.395053         2.892688
