19
Iteration:  2569charge 0 multiplicity 1
 C        -1.035179         0.713924         2.538951
 C         0.263759         1.002370         1.704295
 C         0.935580         2.372648         1.479874
 C         2.171189         1.455101         1.116511
 O         1.933125         0.735627        -0.057272
 C         0.855921         0.038574         0.705065
 C         0.399772        -1.241867         0.136086
 C         1.544882         0.269130         1.981318
 O         1.797344        -0.649564         2.995851
 H        -2.010170         0.901700         2.028998
 H        -0.983164        -0.264333         2.975224
 H        -1.049594         1.362342         3.410112
 H         0.585071         3.131369         0.740708
 H         1.164996         2.898710         2.428738
 H         3.274385         1.774384         1.126855
 H         0.171864        -1.958828         0.871380
 H        -0.526725        -1.114960        -0.417026
 H         1.269980        -1.668666        -0.301312
 H         1.340119        -0.517551         3.871302
