19
Iteration:  2856
 C        -1.262387         0.679973         2.249103
 C         0.184016         1.039179         1.786480
 C         0.968407         2.295941         1.484207
 C         2.217979         1.376608         1.233707
 O         1.891794         0.662429        -0.077476
 C         0.886533         0.015010         0.747125
 C         0.210734        -1.223211         0.141296
 C         1.472524         0.287494         2.039016
 O         2.196010        -0.373335         3.177010
 H        -1.432161         0.615669         3.298998
 H        -2.134814         1.288149         1.792826
 H        -1.398035        -0.390217         1.908509
 H         0.696905         2.950054         0.669617
 H         1.324114         2.858792         2.372299
 H         3.484941         1.435593         1.254996
 H        -0.465149        -1.736797         0.862453
 H        -0.430764        -0.927670        -0.670427
 H         0.954643        -1.876555        -0.322602
 H         2.423972        -1.240678         2.788956
