19
Iteration:  3613
 C        -1.238912         0.868376         2.217952
 C         0.210361         0.974382         1.786118
 C         0.851204         2.268028         1.507623
 C         2.195239         1.433220         1.226641
 O         1.843754         0.805080        -0.053439
 C         0.836522        -0.035115         0.777695
 C         0.373759        -1.358313         0.203771
 C         1.644827         0.282888         2.039286
 O         2.183373        -0.567889         3.030724
 H        -1.492609         0.936175         3.241806
 H        -1.797379         1.747034         1.702604
 H        -1.889713         0.047038         1.784617
 H         0.359088         2.921490         0.642081
 H         0.995333         2.893573         2.474998
 H         3.205188         1.849565         1.129852
 H         0.065111        -2.114413         0.997209
 H        -0.546738        -1.381191        -0.413884
 H         1.155808        -1.912079        -0.366543
 H         1.606764        -0.739791         3.772147
