19
Iteration:  1425charge 0 multiplicity 1
 C        -1.097571         0.749275         2.398026
 C         0.216020         1.002982         1.774407
 C         0.957600         2.355700         1.525837
 C         2.136707         1.471007         1.235396
 O         1.938739         0.769515        -0.093234
 C         0.874705        -0.004148         0.690392
 C         0.422608        -1.327645         0.186352
 C         1.478272         0.281914         1.967585
 O         1.909481        -0.625929         2.977675
 H        -1.962828         0.291763         1.834094
 H        -0.810269         0.041567         3.196181
 H        -1.714548         1.582113         2.781237
 H         0.725468         3.169264         0.757811
 H         0.901373         2.976833         2.468643
 H         3.159901         1.601886         1.290254
 H         0.249375        -1.979091         0.998647
 H        -0.509615        -1.108019        -0.444120
 H         1.292891        -1.737276        -0.564342
 H         1.794554        -0.245195         3.894900
