19
Iteration:    79charge 0 multiplicity 1
 C        -1.181518         0.791671         2.506684
 C         0.149551         0.985608         1.687735
 C         0.908668         2.378704         1.382670
 C         2.161267         1.368407         1.262628
 O         1.944738         0.720087        -0.044344
 C         0.919209         0.006328         0.600528
 C         0.455937        -1.311021         0.271711
 C         1.489397         0.233280         1.899550
 O         1.925521        -0.523457         2.992813
 H        -0.991067         1.248802         3.469310
 H        -2.047918         1.236206         2.111683
 H        -1.415303        -0.320004         2.601077
 H         0.740229         2.805131         0.409677
 H         1.077427         2.998100         2.287857
 H         3.217520         1.779061         1.395208
 H         0.351462        -1.725402         1.375934
 H        -0.320493        -1.577864        -0.291960
 H         1.377806        -1.737007        -0.061702
 H         1.809565        -0.048266         3.883780
