19
Iteration:  2153charge 0 multiplicity 1
 C        -1.079804         0.734599         2.481534
 C         0.215332         0.981391         1.750323
 C         0.952228         2.334384         1.457543
 C         2.248078         1.468621         1.053485
 O         1.797843         0.806599        -0.090172
 C         0.988559        -0.049803         0.816089
 C         0.422736        -1.268563         0.162629
 C         1.631331         0.308128         2.040903
 O         1.771791        -0.685326         2.980638
 H        -1.966285         1.534777         2.447281
 H        -1.461012        -0.278766         2.399219
 H        -0.709629         0.653184         3.518020
 H         0.479715         3.053950         0.744729
 H         0.927216         3.020428         2.321029
 H         3.197379         2.077333         1.276649
 H        -0.056554        -1.999041         0.749869
 H        -0.360976        -1.060840        -0.558750
 H         1.346815        -1.467901        -0.436756
 H         1.503045        -0.342886         3.840947
