19
Iteration:   919
 C        -1.200499         0.749851         2.235564
 C         0.250800         0.934983         1.883795
 C         0.930930         2.248712         1.570436
 C         2.116567         1.516791         1.156517
 O         1.783962         0.779039        -0.048312
 C         0.981918        -0.026548         0.783427
 C         0.207832        -1.207927         0.113907
 C         1.729327         0.216139         2.086608
 O         2.172550        -0.607271         3.018911
 H        -1.578079        -0.118736         1.764456
 H        -1.474744         0.825466         3.272955
 H        -1.786403         1.440765         1.624730
 H         0.504386         2.855028         0.713157
 H         1.027397         2.942720         2.454554
 H         3.078169         1.904417         1.074492
 H        -0.829656        -1.440980         0.651968
 H        -0.176519        -0.631567        -0.742498
 H         0.593371        -2.023407        -0.496630
 H         1.709391        -0.450363         3.905795
