19
Iteration:  3374charge 0 multiplicity 1
 C        -1.218230         0.803351         2.338562
 C         0.226877         0.935984         1.755680
 C         0.931599         2.267291         1.488640
 C         2.219974         1.525996         1.170946
 O         1.874717         0.782056        -0.107977
 C         0.913679        -0.061860         0.779306
 C         0.385813        -1.304710         0.202978
 C         1.523537         0.327980         2.028801
 O         1.992429        -0.562028         3.108044
 H        -1.168158         1.073812         3.470708
 H        -1.906215         1.452406         1.806553
 H        -1.694391        -0.276704         2.187458
 H         0.635129         2.890726         0.525000
 H         0.921012         2.928369         2.516412
 H         3.168107         2.022339         1.164895
 H        -0.233452        -1.874892         1.012079
 H        -0.318871        -1.038096        -0.652652
 H         1.148804        -2.063666        -0.117657
 H         2.334588        -1.316149         2.621036
