19
Iteration:  2079charge 0 multiplicity 1
 C        -1.196278         0.730195         2.173667
 C         0.229217         0.909435         1.846037
 C         0.907631         2.256560         1.580475
 C         2.150468         1.401044         1.163911
 O         1.844777         0.756394        -0.071446
 C         0.944873         0.011253         0.790197
 C         0.136701        -1.125330         0.069196
 C         1.632250         0.269461         2.128113
 O         2.196263        -0.578914         3.058040
 H        -1.771076         0.377321         1.309489
 H        -1.260598        -0.156071         2.869070
 H        -1.655417         1.578288         2.696360
 H         0.446295         2.954951         0.841967
 H         1.129373         2.836955         2.536639
 H         3.321149         1.676174         1.214033
 H        -0.618885        -1.737728         0.705017
 H        -0.502030        -0.730648        -0.685605
 H         0.949785        -1.826927        -0.457973
 H         2.213333        -0.005292         3.877381
