19
Iteration:   819
 C        -0.989528         0.755061         2.469548
 C         0.299295         0.873312         1.780138
 C         0.961077         2.348061         1.409446
 C         2.214020         1.533088         1.193201
 O         1.735904         0.804668        -0.107349
 C         0.839993         0.002841         0.732255
 C         0.427172        -1.276328         0.051155
 C         1.633817         0.284797         2.091469
 O         1.846872        -0.672448         3.077537
 H        -1.761493         1.168365         1.865251
 H        -1.302378        -0.271650         2.511494
 H        -0.976586         1.183563         3.440199
 H         0.622363         2.889351         0.534412
 H         0.981264         2.942606         2.384077
 H         3.125249         2.202153         1.025275
 H        -0.082990        -1.922516         0.896130
 H        -0.442236        -1.108293        -0.641330
 H         1.195300        -1.812797        -0.386552
 H         1.244549        -0.398192         3.828389
