19
Iteration:  2662
 C        -1.249206         0.826306         2.152527
 C         0.137058         1.039723         1.940976
 C         0.975026         2.280555         1.631677
 C         2.144780         1.429383         1.292940
 O         1.883302         0.669940        -0.020152
 C         0.974838        -0.082624         0.736159
 C         0.132769        -1.182566         0.048988
 C         1.547425         0.179080         2.049070
 O         2.308785        -0.518147         2.937563
 H        -1.734234         0.386880         1.286680
 H        -1.263075         0.175326         3.043658
 H        -1.905623         1.687451         2.437681
 H         0.525786         2.886995         0.786913
 H         1.169205         2.992258         2.500601
 H         3.074562         1.838891         1.183157
 H        -0.626068        -1.787650         0.674587
 H        -0.414696        -0.693614        -0.801646
 H         0.751260        -2.099635        -0.133747
 H         1.971328        -0.455898         3.826207
