19
Iteration:  4731charge 0 multiplicity 1
 C        -1.039252         0.805587         2.461631
 C         0.209542         0.990633         1.741802
 C         0.874598         2.347907         1.467073
 C         2.128675         1.562288         1.183485
 O         1.775330         0.768963        -0.099022
 C         0.901658        -0.038714         0.768183
 C         0.518411        -1.382501         0.141514
 C         1.515078         0.293125         1.983359
 O         1.941388        -0.579985         3.099646
 H        -1.049540         1.106686         3.552881
 H        -1.826533         1.430236         1.988161
 H        -1.331708        -0.323770         2.483968
 H         0.463199         2.709344         0.516663
 H         0.994029         3.079180         2.386735
 H         3.176716         1.895356         1.146913
 H         0.249421        -1.186569        -0.899933
 H         1.402505        -2.134878         0.111084
 H        -0.250488        -1.796275         0.719796
 H         1.951750        -1.492772         2.731593
