19
Iteration:   748
 C        -1.232295         0.708492         2.160370
 C         0.208847         0.978781         1.739881
 C         0.958053         2.305300         1.486358
 C         2.141076         1.481683         1.263036
 O         1.780256         0.781447        -0.004274
 C         0.970155        -0.105159         0.784345
 C         0.207695        -1.202640         0.167767
 C         1.588613         0.175504         2.058534
 O         2.201480        -0.551699         3.043666
 H        -1.661149         1.629924         2.619785
 H        -2.026795         0.582007         1.420951
 H        -1.226027        -0.001255         3.000947
 H         0.725219         3.022215         0.652181
 H         1.016652         2.782488         2.436435
 H         3.143384         1.844112         1.339329
 H        -0.402628        -1.473316         0.945813
 H        -0.462199        -0.903730        -0.614228
 H         0.864397        -2.121593        -0.189687
 H         2.778179         0.095071         3.544754
