19
Iteration:  3444charge 0 multiplicity 1
 C        -1.186048         0.707952         2.306455
 C         0.201198         0.897399         1.730602
 C         0.981348         2.370325         1.573391
 C         2.107818         1.455075         1.261140
 O         1.912629         0.691612        -0.048118
 C         0.964422        -0.050821         0.703020
 C         0.197617        -1.241731         0.049280
 C         1.476243         0.176947         2.047958
 O         2.201483        -0.335842         3.093996
 H        -1.550020         1.589817         2.957437
 H        -1.934841         0.478260         1.449292
 H        -1.230436        -0.155218         2.879362
 H         0.643270         3.108085         0.759786
 H         0.945966         2.839150         2.678330
 H         3.182620         1.775994         1.257683
 H        -0.784048        -1.444441         0.363712
 H         0.007454        -1.065321        -1.012605
 H         0.655256        -2.212581         0.085443
 H         1.898758        -1.138662         3.497192
