19
Iteration:  2687charge 0 multiplicity 1
 C        -1.216176         0.764783         2.286624
 C         0.137078         0.963946         1.743181
 C         0.967934         2.286625         1.492432
 C         2.208364         1.345357         1.285894
 O         1.883793         0.776121        -0.018127
 C         0.830050         0.020017         0.770669
 C         0.221785        -1.172283         0.129367
 C         1.564186         0.193851         2.037493
 O         2.232685        -0.529936         2.991263
 H        -1.997293         0.688095         1.458279
 H        -1.315981         0.029946         3.033038
 H        -1.471670         1.690060         2.788209
 H         0.752706         3.018976         0.741725
 H         0.925863         2.733511         2.432146
 H         3.329317         1.710708         1.213671
 H        -0.514350        -1.683353         0.656728
 H        -0.280972        -0.879897        -0.783189
 H         1.019966        -1.893050        -0.048230
 H         1.698901        -0.938917         3.698366
