19
Iteration:  4435charge 0 multiplicity 1
 C        -1.134467         0.712399         2.179001
 C         0.277891         0.933932         1.781457
 C         0.834162         2.285140         1.612571
 C         2.217194         1.488427         1.213051
 O         1.728554         0.751687        -0.114758
 C         0.998000        -0.067905         0.756657
 C         0.193146        -1.251021         0.137544
 C         1.691904         0.185057         2.027281
 O         2.144261        -0.430824         3.135280
 H        -1.586534         1.483625         2.836078
 H        -1.734365         0.779139         1.309895
 H        -1.266226        -0.335022         2.578004
 H         0.536176         3.014771         0.932084
 H         0.994334         2.857946         2.559566
 H         3.150710         1.931532         0.965669
 H        -0.910710        -1.243567         0.332787
 H         0.388633        -1.145354        -1.020442
 H         0.526692        -2.218918         0.472888
 H         1.570805        -0.448029         3.926005
