19
Iteration:    96
 C        -1.113261         0.761533         2.367809
 C         0.149136         0.996291         1.660797
 C         0.906542         2.278735         1.412502
 C         2.202951         1.486180         1.257294
 O         1.927827         0.747025        -0.097783
 C         0.920294        -0.075971         0.723336
 C         0.348218        -1.349064         0.259619
 C         1.476074         0.329171         2.043227
 O         2.012151        -0.546338         3.031559
 H        -1.155642         1.256028         3.386031
 H        -2.047308         1.199685         1.856463
 H        -1.261576        -0.291141         2.531669
 H         0.614831         2.889968         0.519698
 H         0.864939         2.937426         2.286848
 H         3.193326         1.859127         1.349341
 H        -0.168268        -1.809500         1.060066
 H        -0.445807        -1.041768        -0.590929
 H         1.064507        -2.092529        -0.202326
 H         2.183175        -0.001892         3.869795
