19
Iteration:  2114charge 0 multiplicity 1
 C        -1.144266         0.773072         2.364620
 C         0.234437         0.986697         1.728410
 C         0.925966         2.294959         1.577444
 C         2.155508         1.408915         1.237737
 O         1.888678         0.837504        -0.072462
 C         0.884853        -0.058764         0.667336
 C         0.245787        -1.278725         0.090447
 C         1.595665         0.228877         1.997427
 O         2.034246        -0.542279         3.057061
 H        -1.973574         0.983140         1.791772
 H        -1.107754        -0.326211         2.626634
 H        -1.277785         1.297209         3.331263
 H         0.578039         2.981719         0.786865
 H         1.160704         2.786874         2.545837
 H         3.246246         1.540342         1.240202
 H        -0.052405        -2.095408         0.874798
 H        -0.520318        -1.014799        -0.628939
 H         1.038312        -1.781665        -0.540843
 H         1.926122        -0.110347         3.961147
