19
Iteration:  4618
 C        -1.125561         0.611272         2.348935
 C         0.188972         0.932476         1.705677
 C         0.883849         2.276535         1.498389
 C         2.163917         1.457237         1.260658
 O         1.871907         0.725010        -0.093643
 C         0.954734        -0.080732         0.751626
 C         0.112145        -1.215562         0.003138
 C         1.553904         0.272840         2.043970
 O         2.229178        -0.315152         3.196999
 H        -1.237574         1.286271         3.231200
 H        -2.015212         0.811445         1.632884
 H        -1.138619        -0.415740         2.766528
 H         0.474249         2.909997         0.678799
 H         0.997193         2.798206         2.476457
 H         3.104046         2.003698         1.261802
 H         0.331402        -1.135515        -1.063302
 H         0.435132        -2.214341         0.358317
 H        -0.938178        -1.123414         0.133571
 H         2.155085        -1.276257         3.235454
