19
Iteration:  2457charge 0 multiplicity 1
 C        -1.131604         0.735206         2.128540
 C         0.255687         0.932423         1.800057
 C         0.862173         2.260268         1.520447
 C         2.127286         1.448596         1.088145
 O         1.807141         0.761660        -0.052872
 C         0.972252        -0.016799         0.761010
 C         0.118243        -1.152885         0.166856
 C         1.657696         0.211630         2.136713
 O         2.223090        -0.606897         3.138933
 H        -1.406521         1.711216         2.585878
 H        -1.694776         0.500475         1.276769
 H        -1.378899        -0.010465         2.849335
 H         0.332331         2.915318         0.785847
 H         1.129668         2.936196         2.346307
 H         3.082521         2.148758         1.251528
 H        -0.749344        -1.259963         0.686780
 H        -0.318079        -0.922378        -0.794938
 H         0.687796        -2.055280         0.117641
 H         2.061134        -0.228987         4.007696
