19
Iteration:  4918charge 0 multiplicity 1
 C        -1.049041         0.767466         2.471810
 C         0.210800         0.947838         1.742533
 C         0.878405         2.279161         1.488250
 C         2.150112         1.568497         1.161058
 O         1.802829         0.749630        -0.136309
 C         0.956536        -0.024805         0.721766
 C         0.469581        -1.290609         0.094882
 C         1.589663         0.304500         2.043984
 O         1.833412        -0.587200         3.103584
 H        -1.006766         1.279576         3.395221
 H        -1.837955         1.197906         1.945133
 H        -1.316081        -0.253986         2.778490
 H         0.398818         2.832405         0.797710
 H         1.055336         2.750185         2.473949
 H         2.997125         2.179939         1.067425
 H         0.041699        -1.177035        -0.890300
 H         1.187803        -2.160709         0.211609
 H        -0.348123        -1.661887         0.764661
 H         2.724941        -0.965330         2.994589
