19
Iteration:   517charge 0 multiplicity 1
 C        -1.243726         0.865993         2.112266
 C         0.266051         0.980398         1.854890
 C         0.929695         2.250825         1.560579
 C         2.164955         1.464592         1.144695
 O         1.691393         0.762501        -0.065326
 C         0.926682        -0.101523         0.858893
 C         0.312129        -1.336910         0.235609
 C         1.678757         0.289583         2.051291
 O         2.113259        -0.556653         3.037852
 H        -1.469754         0.837522         3.146735
 H        -1.867021         1.572578         1.578956
 H        -1.493703        -0.177799         1.819975
 H         0.476716         2.704554         0.645463
 H         1.150884         3.027507         2.345876
 H         3.156481         1.944153         1.098614
 H        -0.222162        -2.173617         0.800552
 H        -0.213249        -1.011704        -0.615631
 H         1.229293        -1.789687        -0.218324
 H         2.519828         0.055797         3.733527
