19
Iteration:  4897
 C        -1.059581         0.732829         2.450759
 C         0.217404         0.948771         1.747876
 C         0.830256         2.341055         1.419447
 C         2.223876         1.418947         1.266194
 O         1.855412         0.866141        -0.019151
 C         0.919689        -0.035945         0.709663
 C         0.335849        -1.336600         0.083393
 C         1.552885         0.213210         1.976106
 O         1.957525        -0.446045         3.088121
 H        -1.151947         1.317819         3.333732
 H        -1.865452         0.922652         1.789885
 H        -1.231270        -0.267461         2.892876
 H         0.526868         2.728494         0.540084
 H         0.717129         2.906054         2.352462
 H         3.240766         1.820938         1.300148
 H        -0.128714        -1.117097        -0.851095
 H         1.052512        -2.121507        -0.031503
 H        -0.457003        -1.902813         0.654303
 H         2.601699        -1.141298         2.787553
