19
Iteration:  1401charge 0 multiplicity 1
 C        -1.151817         0.801482         2.427587
 C         0.223781         0.950236         1.768887
 C         0.933631         2.333378         1.512270
 C         2.271551         1.469046         1.092313
 O         1.786906         0.822437        -0.007122
 C         0.916979        -0.004875         0.742821
 C         0.528611        -1.293136         0.148825
 C         1.561275         0.304693         2.055502
 O         1.816735        -0.711891         2.949614
 H        -1.837920         0.129245         1.914000
 H        -1.096655         0.431285         3.466378
 H        -1.782442         1.722390         2.308072
 H         0.788510         2.997818         0.693310
 H         0.908506         3.057473         2.404828
 H         3.211028         1.962351         0.807519
 H         0.249048        -1.888520         1.047728
 H        -0.292440        -1.192597        -0.522586
 H         1.438970        -1.829985        -0.415564
 H         1.898752        -0.649377         3.943138
