19
Iteration:  3459charge 0 multiplicity 1
 C        -1.088101         0.714675         2.271937
 C         0.195119         0.951652         1.688558
 C         0.873527         2.238252         1.592877
 C         2.217092         1.394255         1.278240
 O         1.846951         0.711922        -0.042434
 C         0.873694        -0.106196         0.715719
 C         0.182535        -1.223724        -0.002174
 C         1.569417         0.299508         2.056033
 O         2.194812        -0.330723         3.134923
 H        -1.470075         1.599892         2.691310
 H        -1.962093         0.579524         1.570954
 H        -0.987295        -0.118340         3.022638
 H         0.489581         2.966524         0.924122
 H         0.969629         2.646986         2.509852
 H         3.225183         1.769891         1.398972
 H        -0.794012        -1.474464         0.562712
 H         0.179925        -0.932878        -1.041083
 H         0.845633        -2.128170        -0.075748
 H         1.524485        -0.980761         3.453972
