19
Iteration:  3413
 C        -1.191285         0.718781         2.273701
 C         0.202335         0.929458         1.815100
 C         0.944278         2.281510         1.477859
 C         2.214829         1.435426         1.209228
 O         1.849930         0.723026        -0.084098
 C         0.894573         0.015052         0.789713
 C         0.277917        -1.205354         0.144171
 C         1.553302         0.286548         2.141911
 O         2.138110        -0.450169         3.059333
 H        -1.639980         1.233689         3.085533
 H        -1.929627         0.959332         1.431897
 H        -1.208935        -0.316728         2.432617
 H         0.511792         2.722289         0.627401
 H         0.818004         2.894472         2.303866
 H         3.259630         1.831969         1.182041
 H        -0.673538        -1.559073         0.541908
 H         0.194572        -0.957714        -0.881488
 H         0.926594        -2.096316         0.036334
 H         1.749293        -1.363751         3.133934
