19
Iteration:  1277charge 0 multiplicity 1
 C        -1.106637         0.663839         2.333421
 C         0.239758         0.918319         1.792496
 C         0.899893         2.280966         1.460625
 C         2.133376         1.399568         1.192477
 O         1.869353         0.782380        -0.051504
 C         0.994916        -0.018446         0.733351
 C         0.207806        -1.036322         0.020599
 C         1.627302         0.185881         2.079487
 O         2.058147        -0.608956         3.131824
 H        -1.083656         0.255852         3.348475
 H        -1.700152         1.569329         2.359102
 H        -1.715206         0.042899         1.714707
 H         0.556228         3.056767         0.815038
 H         0.992552         2.801101         2.402862
 H         3.102321         2.030027         1.078041
 H        -0.568340        -1.615094         0.622176
 H        -0.465266        -0.583196        -0.781380
 H         0.885688        -1.669155        -0.432107
 H         1.767457        -0.156335         3.949703
