19
Iteration:   270
 C        -1.157561         0.793512         2.456577
 C         0.222649         0.906490         1.797736
 C         0.895149         2.383324         1.491728
 C         2.251143         1.448197         1.152649
 O         1.953779         0.728386        -0.096894
 C         0.957026        -0.046828         0.610423
 C         0.375468        -1.452265         0.263501
 C         1.504857         0.359488         1.966587
 O         1.831214        -0.468520         3.010368
 H        -1.137722         0.790408         3.585565
 H        -1.794147         1.497968         1.905185
 H        -1.735050        -0.077923         2.245695
 H         0.562538         3.061445         0.613125
 H         1.027051         2.855202         2.473965
 H         3.173923         1.809569         1.350492
 H         0.190080        -2.027658         1.080451
 H        -0.593243        -1.416607        -0.338133
 H         1.202957        -1.995562        -0.256646
 H         2.513908        -0.114282         3.555030
