19
Iteration:  3586
 C        -1.243605         0.813441         2.233641
 C         0.176830         0.983739         1.732196
 C         0.911372         2.330187         1.488763
 C         2.167360         1.470724         1.124127
 O         1.800185         0.769044        -0.065164
 C         0.938945        -0.048366         0.811158
 C         0.495389        -1.296534         0.270229
 C         1.518754         0.287912         2.110375
 O         2.070251        -0.653014         2.989852
 H        -1.342173         0.865136         3.363391
 H        -1.750846         1.664172         1.918861
 H        -1.909335         0.079859         1.900494
 H         0.522128         3.010501         0.794054
 H         1.103699         2.801679         2.445277
 H         3.245012         1.695862         0.999348
 H         0.408027        -2.127964         0.896602
 H        -0.537691        -1.175302        -0.063679
 H         1.195024        -1.597778        -0.482711
 H         2.117397        -0.328147         3.892245
