19
Iteration:   465
 C        -1.114477         0.778646         2.501694
 C         0.218589         0.948904         1.735962
 C         0.910392         2.303166         1.405636
 C         2.242708         1.516969         1.228210
 O         1.921643         0.785889        -0.049492
 C         0.912293        -0.064703         0.683114
 C         0.384156        -1.381750         0.252388
 C         1.486337         0.378138         1.960821
 O         1.932718        -0.574573         2.933827
 H        -1.474268         1.682289         3.103831
 H        -1.806251         0.666430         1.694593
 H        -1.169887        -0.120439         3.072394
 H         0.631067         2.820725         0.482739
 H         0.805983         2.935121         2.234564
 H         3.229998         1.830028         1.443109
 H         0.114183        -1.845911         1.101420
 H        -0.488707        -1.189742        -0.339280
 H         1.125142        -2.088442        -0.253050
 H         1.446015        -0.578927         3.795869
