19
Iteration:  2220charge 0 multiplicity 1
 C        -1.179956         0.753536         2.308570
 C         0.200824         1.006319         1.741223
 C         0.964230         2.288268         1.520274
 C         2.169038         1.462218         1.217542
 O         1.795375         0.728773         0.011554
 C         0.924733        -0.042533         0.770671
 C         0.286139        -1.240903         0.087768
 C         1.548951         0.232711         2.028488
 O         2.146844        -0.549014         2.981371
 H        -1.768050         1.704733         2.465009
 H        -1.901625         0.087385         1.777719
 H        -1.019184         0.221470         3.255302
 H         0.649907         3.143667         0.927636
 H         1.194954         2.806810         2.458991
 H         3.218283         1.791680         1.050227
 H        -0.521997        -1.470682         0.728183
 H        -0.264722        -1.187102        -0.817246
 H         1.099604        -2.011262         0.015219
 H         1.833378        -0.239235         3.863105
