19
Iteration:  2467
 C        -1.178842         0.733088         2.158686
 C         0.257420         0.908113         1.800883
 C         0.928748         2.219860         1.485759
 C         2.109283         1.444116         1.223021
 O         1.816966         0.796415        -0.072624
 C         0.870372        -0.059729         0.787966
 C         0.153170        -1.116414         0.162472
 C         1.647384         0.237070         2.096699
 O         2.236468        -0.547406         3.084339
 H        -1.680598         1.680057         2.394269
 H        -1.753711         0.424986         1.305936
 H        -1.243051         0.107501         3.026562
 H         0.640877         2.819179         0.624084
 H         1.130332         2.680126         2.445973
 H         3.291968         1.764919         1.042918
 H        -0.592607        -1.310921         0.854175
 H        -0.081029        -0.972237        -0.847236
 H         0.631118        -2.063331         0.151963
 H         1.918351        -0.267757         3.939274
