19
Iteration:  2411
 C        -1.108235         0.721959         2.363852
 C         0.155596         1.025637         1.720815
 C         0.959381         2.334013         1.436900
 C         2.218180         1.406147         1.187732
 O         1.864916         0.728813        -0.080836
 C         0.838847         0.033763         0.721618
 C         0.315444        -1.247385         0.168866
 C         1.473526         0.248299         2.113728
 O         2.070109        -0.572668         3.049189
 H        -1.011710         0.905000         3.406511
 H        -1.927123         1.256645         1.884186
 H        -1.362595        -0.339047         2.242512
 H         0.572333         2.956366         0.624390
 H         0.964068         2.952434         2.346460
 H         3.385093         1.555201         1.126904
 H        -0.245158        -1.826196         0.896096
 H        -0.376908        -1.163012        -0.622428
 H         1.198833        -1.740020        -0.148609
 H         2.167404        -0.083633         3.893716
