19
Iteration:  1217
 C        -1.034376         0.783740         2.418309
 C         0.301213         1.025491         1.775587
 C         0.949698         2.335064         1.630403
 C         2.226686         1.459328         1.185609
 O         1.772959         0.815095        -0.111377
 C         0.898011         0.049207         0.628286
 C         0.411270        -1.272616         0.091445
 C         1.534559         0.181519         1.986160
 O         1.823703        -0.701874         3.058696
 H        -0.908344         0.960058         3.532460
 H        -1.816172         1.534194         2.105137
 H        -1.261865        -0.313040         2.329764
 H         0.521882         2.955540         0.781373
 H         1.081275         2.738281         2.652906
 H         3.105038         2.025478         1.126743
 H         0.482942        -1.991492         0.825436
 H        -0.364935        -1.283949        -0.640213
 H         1.303082        -1.515240        -0.625251
 H         1.416877        -0.423035         3.868013
