19
Iteration:  1931charge 0 multiplicity 1
 C        -1.154099         0.748069         2.515869
 C         0.252480         0.905166         1.790515
 C         0.866444         2.307773         1.467387
 C         2.247197         1.433726         1.187577
 O         1.892382         0.807135        -0.004176
 C         0.992731        -0.034926         0.614804
 C         0.346950        -1.302883         0.065345
 C         1.545123         0.298337         1.949170
 O         1.932048        -0.551524         3.034073
 H        -1.816984         1.707943         2.592347
 H        -1.870838         0.123797         1.965799
 H        -1.085262         0.414855         3.524312
 H         0.599140         2.944286         0.570141
 H         0.954847         2.749233         2.463917
 H         3.225970         1.810897         1.206549
 H         0.053965        -1.879689         0.988526
 H        -0.519796        -0.916435        -0.659192
 H         1.040348        -1.951615        -0.344060
 H         1.629811        -0.116368         3.828301
