19
Iteration:  2831
 C        -1.133531         0.693859         2.192369
 C         0.322023         0.884428         1.781036
 C         0.899481         2.296764         1.478407
 C         2.223499         1.464511         1.187896
 O         1.804370         0.710561         0.009574
 C         0.904020        -0.090833         0.800029
 C         0.157032        -1.177251         0.054235
 C         1.597339         0.253689         2.050277
 O         2.081425        -0.402236         3.219883
 H        -1.214339         1.236902         3.161650
 H        -1.801519         1.220526         1.497158
 H        -1.507049        -0.286213         2.377630
 H         0.548801         2.720066         0.561924
 H         1.045481         3.069835         2.235930
 H         3.343193         1.876619         1.033990
 H        -0.472534        -1.529577         0.860331
 H        -0.526892        -0.836734        -0.671246
 H         0.752007        -1.950061        -0.356979
 H         2.582890        -1.112598         2.821698
