19
Iteration:  3748
 C        -1.068795         0.714704         2.472371
 C         0.217338         0.977484         1.689431
 C         0.965134         2.311607         1.467955
 C         2.140587         1.481500         1.248457
 O         1.867122         0.773568        -0.088418
 C         0.937195        -0.071267         0.677589
 C         0.345339        -1.297566         0.080976
 C         1.449855         0.291041         2.044955
 O         1.977560        -0.554331         3.038670
 H        -1.308226         1.564810         3.188071
 H        -1.799782         0.387732         1.782542
 H        -0.869651        -0.228567         3.077127
 H         0.626725         3.061122         0.573891
 H         1.004062         2.877441         2.403362
 H         3.166127         1.856129         1.405925
 H        -0.321284        -1.689022         0.822311
 H        -0.343880        -0.891269        -0.745355
 H         1.154615        -1.980840        -0.107538
 H         1.893858        -0.115775         3.915391
