19
Iteration:  3368
 C        -1.212303         0.758721         2.346458
 C         0.188092         0.919891         1.780195
 C         0.938204         2.258902         1.490583
 C         2.195300         1.507391         1.179386
 O         1.888494         0.763958        -0.094098
 C         0.914644        -0.020081         0.733324
 C         0.398834        -1.285939         0.245795
 C         1.535650         0.287970         2.000238
 O         1.947895        -0.522364         3.076658
 H        -1.172668         1.169244         3.352861
 H        -1.779415         1.643629         1.936075
 H        -1.734609        -0.121284         2.330188
 H         0.740642         2.873764         0.657206
 H         1.085730         2.816010         2.372389
 H         3.195174         2.003796         1.267488
 H        -0.078594        -1.859971         0.971696
 H        -0.272423        -1.175084        -0.595095
 H         1.131594        -1.945457        -0.200904
 H         2.555185        -1.148333         2.587962
