19
Iteration:  3227charge 0 multiplicity 1
 C        -1.234733         0.703329         2.249310
 C         0.241746         0.972091         1.762588
 C         0.946458         2.327686         1.583665
 C         2.220726         1.438894         1.161814
 O         1.902419         0.678064        -0.072167
 C         0.848554        -0.069581         0.747527
 C         0.084330        -1.206867         0.000967
 C         1.611511         0.223012         2.091074
 O         2.157389        -0.353511         3.238850
 H        -1.588351         1.353449         3.007016
 H        -1.977536         0.621419         1.360529
 H        -1.217537        -0.206864         2.799723
 H         0.760368         2.877543         0.653770
 H         1.140214         2.935280         2.425022
 H         3.298622         1.808992         1.237535
 H        -0.699121        -1.730948         0.550118
 H        -0.235054        -1.005774        -1.050394
 H         0.890105        -2.055521        -0.015590
 H         2.610309        -1.201844         2.922871
