19
Iteration:  3538
 C        -1.124257         0.680387         2.368256
 C         0.149154         0.984507         1.652548
 C         0.874352         2.298123         1.429367
 C         2.185901         1.419831         1.177413
 O         1.923729         0.789248        -0.088079
 C         0.996625         0.004629         0.706526
 C         0.348893        -1.210282         0.193508
 C         1.576475         0.376643         2.064048
 O         1.892721        -0.601095         3.095903
 H        -0.985007         0.954527         3.440134
 H        -2.165770         0.937942         2.032350
 H        -1.270641        -0.498498         2.485090
 H         0.705479         2.987302         0.629842
 H         1.006551         2.754072         2.342975
 H         3.232223         1.674826         1.372863
 H         0.183892        -2.019922         0.989667
 H        -0.771429        -1.128059        -0.106270
 H         0.969916        -1.831367        -0.508598
 H         2.501313        -0.239378         3.797066
