19
Iteration:   213charge 0 multiplicity 1
 C        -1.114552         0.768022         2.466321
 C         0.282751         0.994541         1.812499
 C         0.924152         2.247893         1.385245
 C         2.219827         1.456479         1.154556
 O         1.844952         0.749679        -0.061884
 C         0.926159        -0.072531         0.719978
 C         0.343669        -1.342376         0.102985
 C         1.552944         0.247345         2.004904
 O         1.936446        -0.423663         3.141747
 H        -1.264104         1.411984         3.374548
 H        -1.936090         1.100574         1.891044
 H        -1.041725        -0.316328         2.647162
 H         0.511103         2.639211         0.427169
 H         1.139008         3.134061         2.018344
 H         3.173600         1.987093         1.285953
 H        -0.215453        -2.087723         0.716592
 H        -0.152988        -1.040427        -0.778159
 H         1.220647        -1.813234        -0.435507
 H         1.005976        -0.579874         3.531190
