19
Iteration:  1660
 C        -1.170828         0.721944         2.231270
 C         0.166255         0.906284         1.769514
 C         0.826119         2.269003         1.455295
 C         2.168839         1.394545         1.186158
 O         1.849938         0.718646         0.017510
 C         0.978306        -0.060414         0.760231
 C         0.265341        -1.228576         0.088262
 C         1.588265         0.310892         2.095571
 O         2.193745        -0.454056         3.117260
 H        -1.258166         0.653706         3.312918
 H        -1.675020         1.569783         1.726535
 H        -1.742050        -0.100693         1.718636
 H         0.426860         2.958966         0.598478
 H         0.976548         2.911369         2.292381
 H         3.194924         1.872466         1.316967
 H        -0.263032        -1.977287         0.781109
 H        -0.545933        -0.843017        -0.600712
 H         0.925702        -1.847355        -0.575773
 H         1.962378         0.041961         3.953466
