19
Iteration:  4511charge 0 multiplicity 1
 C        -1.232185         0.760800         2.400614
 C         0.067419         0.972765         1.710751
 C         0.912657         2.299534         1.512005
 C         2.210650         1.539640         1.163295
 O         1.891059         0.778417        -0.060057
 C         0.842897         0.008456         0.670608
 C         0.458648        -1.335939         0.258367
 C         1.572086         0.287255         2.019620
 O         2.015216        -0.631368         2.993517
 H        -1.072077         1.061361         3.448155
 H        -2.093840         1.113578         1.919960
 H        -1.362885        -0.356907         2.358869
 H         0.590152         2.991707         0.727012
 H         0.911893         2.934322         2.481579
 H         3.251147         1.861674         1.193036
 H        -0.422863        -1.199333        -0.387698
 H         1.301446        -1.899667        -0.336572
 H         0.259091        -1.903427         1.123782
 H         2.703604        -0.105261         3.416342
