19
Iteration:  4492
 C        -1.189084         0.720016         2.331520
 C         0.162629         1.025631         1.767280
 C         0.824027         2.365559         1.481776
 C         2.132889         1.483189         1.219368
 O         1.911873         0.728657        -0.005829
 C         0.945677        -0.067781         0.758519
 C         0.356258        -1.334935         0.227894
 C         1.488625         0.327431         2.125452
 O         2.084257        -0.571425         2.838534
 H        -1.258978         1.220994         3.303234
 H        -1.870593         1.132495         1.580436
 H        -1.447665        -0.362452         2.426274
 H         0.623467         3.020122         0.675547
 H         1.243735         2.941899         2.317680
 H         3.193166         1.809815         1.361565
 H        -0.656201        -1.232079        -0.196082
 H         1.077467        -1.672973        -0.637823
 H         0.494952        -2.120704         0.988755
 H         2.564512        -0.241022         3.620397
