19
Iteration:  4203charge 0 multiplicity 1
 C        -1.078288         0.685976         2.358878
 C         0.175688         0.983050         1.780711
 C         0.898030         2.247268         1.484484
 C         2.164867         1.442793         1.205420
 O         1.903200         0.674056        -0.074716
 C         0.934564        -0.024136         0.727639
 C         0.204188        -1.165384         0.060183
 C         1.474674         0.306723         2.098429
 O         2.123989        -0.492038         3.048378
 H        -1.424169         1.443072         3.186194
 H        -1.975866         0.647241         1.724161
 H        -0.934828        -0.305255         2.850774
 H         0.666417         2.861992         0.605020
 H         1.017333         2.983770         2.285321
 H         3.179296         1.864680         1.372039
 H        -0.648101        -1.658305         0.554359
 H        -0.044785        -1.153716        -0.989899
 H         0.988560        -1.975475         0.012517
 H         2.018988        -0.095100         3.938378
