19
Iteration:   574charge 0 multiplicity 1
 C        -1.207756         0.710050         2.349667
 C         0.154108         0.923336         1.574850
 C         0.878296         2.335471         1.452539
 C         2.235366         1.464995         1.241144
 O         1.919368         0.695574         0.015341
 C         1.020240        -0.123381         0.733254
 C         0.156256        -1.241309         0.239671
 C         1.582744         0.294264         1.990578
 O         2.136398        -0.464153         3.018689
 H        -1.086773         0.441675         3.392490
 H        -1.765113         1.608417         2.290544
 H        -1.907820         0.017204         1.928987
 H         0.556022         3.158465         0.749693
 H         0.966146         2.783938         2.433776
 H         3.201123         1.882801         1.279647
 H        -0.502438        -1.596250         0.964707
 H        -0.377612        -0.985858        -0.624506
 H         0.932674        -2.058170        -0.079410
 H         1.830473        -0.078632         3.841924
