19
Iteration:   881
 C        -1.079394         0.693037         2.380410
 C         0.230677         0.970411         1.754675
 C         0.912014         2.337331         1.552178
 C         2.167083         1.383995         1.238909
 O         1.879126         0.751339        -0.062090
 C         0.826226        -0.008061         0.684582
 C         0.302221        -1.217281         0.093346
 C         1.510003         0.300925         2.007479
 O         2.030523        -0.598365         3.027355
 H        -1.725050        -0.019778         1.767486
 H        -0.759554         0.192743         3.342182
 H        -1.731038         1.545225         2.699321
 H         0.655646         3.042647         0.751901
 H         1.149055         2.958557         2.405063
 H         3.222011         1.869476         1.252265
 H        -0.353160        -1.648463         0.764285
 H        -0.296419        -0.697106        -0.692863
 H         1.039982        -1.965823        -0.323111
 H         2.373833        -0.013685         3.755247
