19
Iteration:  2786
 C        -1.077616         0.737879         2.472915
 C         0.291395         0.948304         1.774072
 C         0.912675         2.298590         1.482793
 C         2.237873         1.439552         1.167832
 O         1.887406         0.688671        -0.014217
 C         0.901856         0.003924         0.619161
 C         0.260839        -1.265476         0.039104
 C         1.534498         0.280410         1.997568
 O         1.882257        -0.456492         3.148140
 H        -1.578214         1.712063         2.789112
 H        -1.776868         0.300251         1.784642
 H        -0.979099         0.128482         3.336558
 H         0.493362         2.910665         0.682291
 H         0.911564         2.835603         2.405381
 H         3.324540         1.868361         1.123393
 H        -0.265389        -1.749831         0.790321
 H        -0.465323        -1.184437        -0.754055
 H         1.051335        -1.835764        -0.396642
 H         2.785323        -0.774248         3.167958
