19
Iteration:  4986charge 0 multiplicity 1
 C        -1.161051         0.652958         2.380381
 C         0.155817         0.919042         1.695652
 C         0.898080         2.280218         1.456069
 C         2.183533         1.434647         1.221968
 O         1.858253         0.807609        -0.053936
 C         0.907592         0.034113         0.648925
 C         0.329192        -1.269085         0.142748
 C         1.562438         0.311892         2.067514
 O         2.042472        -0.474916         3.130498
 H        -1.021899         0.856726         3.453845
 H        -1.915195         1.365560         2.014408
 H        -1.503861        -0.359772         2.436090
 H         0.828790         2.919304         0.621392
 H         1.091131         2.794290         2.445823
 H         3.118911         2.151571         1.205153
 H        -0.323901        -1.120816        -0.745407
 H         1.212851        -2.010588        -0.028764
 H        -0.293189        -1.757522         1.016902
 H         2.442631        -1.276957         2.707283
