19
Iteration:  1507
 C        -1.246867         0.624586         2.246412
 C         0.172366         0.923731         1.792448
 C         0.928469         2.277035         1.475373
 C         2.223722         1.421423         1.198568
 O         1.834286         0.710947        -0.022380
 C         0.917657        -0.091113         0.797963
 C         0.244276        -1.112252         0.034106
 C         1.618295         0.266245         2.059578
 O         2.157316        -0.455745         3.142789
 H        -1.718912         1.578499         2.050574
 H        -1.862570        -0.129774         1.732181
 H        -1.183469         0.547886         3.345206
 H         0.412126         2.800593         0.605589
 H         1.148807         2.950229         2.320484
 H         3.313524         1.784678         1.024985
 H        -0.645261        -1.646883         0.564187
 H        -0.053172        -0.593430        -0.895320
 H         0.952742        -1.843206        -0.252296
 H         2.040658        -0.011733         4.040102
