19
Iteration:  2728
 C        -1.024322         0.757430         2.479627
 C         0.325377         0.968088         1.823052
 C         0.944434         2.325417         1.549869
 C         2.198391         1.511073         1.097861
 O         1.900954         0.790641        -0.083600
 C         0.861668        -0.049220         0.658682
 C         0.292824        -1.323048         0.120838
 C         1.571504         0.220432         1.975915
 O         1.854125        -0.506055         3.103361
 H        -1.729124         1.305078         1.844184
 H        -1.335027        -0.293691         2.428803
 H        -1.153237         1.071943         3.550983
 H         0.470034         2.904178         0.688509
 H         1.209979         2.934828         2.454133
 H         3.049196         1.995399         1.094741
 H        -0.241864        -2.068262         0.721140
 H        -0.180631        -0.915597        -0.821082
 H         1.186783        -1.929919        -0.144515
 H         1.165442        -1.231276         3.108188
