19
Iteration:  3756charge 0 multiplicity 1
 C        -1.138640         0.718497         2.463167
 C         0.171048         0.967005         1.764519
 C         0.995260         2.284071         1.431983
 C         2.218115         1.422350         1.223697
 O         1.843917         0.827502        -0.066733
 C         0.951622         0.015429         0.691609
 C         0.350754        -1.302829         0.087685
 C         1.509145         0.286295         2.027565
 O         1.984184        -0.538394         3.029571
 H        -1.532437         1.372609         3.156224
 H        -2.057447         0.570457         1.788960
 H        -1.148621        -0.256730         3.024037
 H         0.677957         3.011235         0.590286
 H         1.084910         2.829780         2.398575
 H         3.194894         1.815720         1.071544
 H        -0.170379        -1.705886         0.951597
 H        -0.359829        -1.388937        -0.737792
 H         1.177948        -2.004778        -0.167862
 H         1.756866        -0.311949         3.939188
