19
Iteration:  1897charge 0 multiplicity 1
 C        -1.123180         0.593380         2.230850
 C         0.228458         0.991677         1.704131
 C         0.907116         2.316139         1.481253
 C         2.227160         1.541264         1.188522
 O         1.849550         0.704152         0.013081
 C         0.894888        -0.013739         0.775899
 C         0.188221        -1.168726         0.107319
 C         1.617956         0.224052         2.091766
 O         2.092763        -0.536639         3.081036
 H        -1.616502         1.561561         2.554276
 H        -1.738461         0.025606         1.477486
 H        -1.197890        -0.058079         3.080854
 H         0.461303         3.083518         0.780553
 H         0.919107         2.788048         2.500196
 H         3.300063         1.742869         1.111729
 H        -0.433999        -1.688427         0.932739
 H        -0.535246        -0.774183        -0.710157
 H         0.791040        -1.858899        -0.391944
 H         2.251955        -0.071305         3.911733
