19
Iteration:  4316
 C        -1.144985         0.809538         2.354869
 C         0.242082         0.984090         1.772876
 C         0.898049         2.315447         1.518754
 C         2.203681         1.438344         1.245049
 O         1.893477         0.748083        -0.125175
 C         0.845144        -0.014797         0.745943
 C         0.407381        -1.398804         0.197917
 C         1.573278         0.333444         2.003726
 O         1.945097        -0.571643         2.973967
 H        -1.021608         1.060939         3.442693
 H        -2.049276         1.369339         1.934023
 H        -1.278218        -0.358887         2.364208
 H         0.755400         2.997373         0.651833
 H         0.947870         3.034941         2.423141
 H         3.103424         1.997008         1.226710
 H         0.518067        -2.167579         0.974056
 H        -0.672067        -1.148741        -0.145798
 H         1.046897        -1.641259        -0.614212
 H         1.496477        -0.334106         3.793980
