19
Iteration:  4372charge 0 multiplicity 1
 C        -0.947348         0.652554         2.482348
 C         0.272744         0.904334         1.734492
 C         0.808948         2.309866         1.373916
 C         2.242944         1.438956         1.170803
 O         1.886603         0.727267         0.022717
 C         0.867795        -0.091026         0.728762
 C         0.306874        -1.192975        -0.023199
 C         1.559763         0.361495         2.079646
 O         1.872144        -0.508782         3.114173
 H        -0.946932         1.151954         3.474920
 H        -1.802031         1.100485         1.836077
 H        -1.194324        -0.459828         2.620514
 H         0.450714         2.817810         0.441070
 H         0.992938         2.994733         2.266320
 H         3.181627         1.946306         1.076446
 H        -0.411247        -1.755590         0.581231
 H        -0.256563        -0.834677        -0.967288
 H         1.102463        -1.825892        -0.311575
 H         1.959673         0.007957         3.943702
