19
Iteration:   720
 C        -1.192710         0.705998         2.145701
 C         0.301391         0.954888         1.940876
 C         0.860866         2.265561         1.488409
 C         2.170596         1.432088         1.039902
 O         1.863934         0.750486        -0.056734
 C         0.853109        -0.013023         0.891474
 C         0.252061        -1.201277         0.187695
 C         1.631880         0.269529         2.125789
 O         2.149672        -0.577744         3.016848
 H        -1.689638         1.275489         2.976012
 H        -1.677900         1.272998         1.292091
 H        -1.558924        -0.336020         2.169220
 H         0.392772         2.802264         0.665873
 H         0.954181         3.009267         2.360203
 H         3.219868         2.003772         1.017499
 H        -0.598202        -1.674774         0.871817
 H        -0.366768        -0.775000        -0.667048
 H         0.940265        -1.962980        -0.048815
 H         2.209855        -0.109812         3.876567
