19
Iteration:  2512charge 0 multiplicity 1
 C        -1.106278         0.832498         2.440880
 C         0.180264         0.982693         1.761824
 C         0.944978         2.284679         1.522696
 C         2.177040         1.453044         1.147815
 O         1.858164         0.689020        -0.087592
 C         0.892613         0.007284         0.671177
 C         0.369524        -1.252014         0.107881
 C         1.483134         0.223498         2.066287
 O         2.009777        -0.574405         3.032523
 H        -1.832381         1.692896         2.423348
 H        -1.605499         0.078902         1.894624
 H        -0.938065         0.571234         3.464342
 H         0.561294         3.097528         0.888501
 H         1.038924         2.587473         2.555954
 H         3.263360         1.988203         1.297149
 H        -0.218121        -1.859433         0.660611
 H        -0.023469        -1.113879        -0.862490
 H         1.170536        -1.840401        -0.267082
 H         1.957499        -0.179781         3.906403
