19
Iteration:  4160charge 0 multiplicity 1
 C        -0.993780         0.640241         2.467379
 C         0.343510         0.933468         1.756230
 C         0.994251         2.239073         1.422724
 C         2.224554         1.488911         1.089596
 O         1.808173         0.809336        -0.149098
 C         0.867565        -0.022200         0.715470
 C         0.295014        -1.320372         0.044852
 C         1.570914         0.286606         2.087234
 O         1.828818        -0.473826         3.186845
 H        -1.186311         1.202544         3.493701
 H        -1.941867         0.981229         2.035606
 H        -0.996825        -0.463573         2.702688
 H         0.483152         3.054664         0.859007
 H         1.096068         2.620194         2.564915
 H         3.162729         2.093564         0.918807
 H        -0.507766        -1.623248         0.706509
 H        -0.003984        -0.962475        -0.939782
 H         1.137713        -1.941156        -0.267424
 H         1.498390        -0.037888         4.023612
