19
Iteration:   402charge 0 multiplicity 1
 C        -1.086093         0.657677         2.420878
 C         0.217073         1.015950         1.792557
 C         0.940083         2.330064         1.489036
 C         2.195936         1.484117         1.154988
 O         1.839568         0.707209        -0.092252
 C         0.973153        -0.110326         0.694430
 C         0.308486        -1.271873         0.071924
 C         1.584435         0.207922         1.978044
 O         1.912540        -0.436215         3.184605
 H        -1.801112         1.465267         2.826301
 H        -1.652659         0.138077         1.596052
 H        -0.957685        -0.055242         3.234822
 H         0.560777         3.041456         0.700619
 H         1.021337         2.905974         2.425533
 H         3.180131         1.857556         1.255012
 H        -0.494961        -1.777217         0.595967
 H        -0.169259        -0.817554        -0.924019
 H         1.075537        -2.019119        -0.344767
 H         2.165170         0.400795         3.646403
