19
Iteration:  3631charge 0 multiplicity 1
 C        -1.203968         0.814377         2.207333
 C         0.212751         0.886227         1.792024
 C         0.927611         2.273776         1.555507
 C         2.161925         1.451461         1.262608
 O         1.848237         0.789160        -0.054557
 C         0.970151        -0.108956         0.686458
 C         0.273713        -1.331405         0.206765
 C         1.522058         0.246821         2.042788
 O         2.172043        -0.424811         2.987575
 H        -1.299143         1.049269         3.317037
 H        -1.844365         1.483466         1.619605
 H        -1.655301        -0.123007         2.069417
 H         0.621732         2.845431         0.741889
 H         1.015670         2.922528         2.466094
 H         3.169706         1.965772         1.445433
 H        -0.296807        -1.834281         1.001425
 H        -0.480736        -1.018457        -0.528951
 H         1.062474        -2.005988        -0.105174
 H         1.580667        -0.658654         3.707552
