19
Iteration:  4123charge 0 multiplicity 1
 C        -1.053986         0.705035         2.520852
 C         0.165996         0.964051         1.700684
 C         0.926625         2.281157         1.410596
 C         2.242433         1.469701         1.226848
 O         1.909067         0.745817        -0.081630
 C         0.893313         0.006726         0.713974
 C         0.331320        -1.324288         0.119731
 C         1.475044         0.330073         1.988099
 O         1.970610        -0.497407         3.041607
 H        -0.863947         0.933029         3.626729
 H        -1.881637         1.287772         2.040691
 H        -1.357073        -0.333980         2.407066
 H         0.678873         2.989495         0.625875
 H         1.100755         2.738624         2.320895
 H         3.196433         1.971560         1.383590
 H        -0.256928        -1.944257         0.825365
 H        -0.403253        -0.990240        -0.605179
 H         1.051515        -2.078628        -0.325975
 H         1.452732        -0.492001         3.873633
