19
Iteration:  1703charge 0 multiplicity 1
 C        -1.148927         0.626065         2.185144
 C         0.281170         0.938183         1.723560
 C         0.876619         2.284271         1.498224
 C         2.165049         1.478116         1.173075
 O         1.843177         0.689405        -0.017784
 C         0.903644        -0.101595         0.778994
 C         0.234491        -1.219457         0.061489
 C         1.592023         0.295086         2.117821
 O         2.127426        -0.411566         3.164394
 H        -0.975787         0.434878         3.270493
 H        -1.619403         1.611618         2.219639
 H        -1.728885        -0.127748         1.661585
 H         0.339055         2.844244         0.677512
 H         0.996834         2.963566         2.274088
 H         3.239709         1.806722         1.073237
 H        -0.611406        -1.651685         0.678215
 H        -0.358402        -0.763960        -0.785950
 H         0.961214        -1.896621        -0.245796
 H         1.944910        -0.036388         4.084928
