19
Iteration:  1497charge 0 multiplicity 1
 C        -1.209393         0.640738         2.250856
 C         0.253813         0.927604         1.849286
 C         0.932687         2.244042         1.492878
 C         2.183545         1.425176         1.096594
 O         1.867000         0.714661        -0.057173
 C         0.908628        -0.030508         0.832653
 C         0.202136        -1.117018         0.003519
 C         1.618669         0.238939         2.144999
 O         2.140234        -0.478598         3.162837
 H        -1.790364         1.459879         1.863578
 H        -1.536738        -0.259592         1.692023
 H        -1.636854         0.496749         3.275278
 H         0.632347         2.721247         0.514790
 H         1.011935         3.010050         2.323568
 H         3.050753         2.158757         1.013426
 H        -0.617310        -1.718441         0.534058
 H        -0.172073        -0.605572        -0.865145
 H         0.942193        -1.875656        -0.298390
 H         1.889137         0.123051         3.926083
