19
Iteration:  4384
 C        -1.048919         0.591594         2.450398
 C         0.209186         1.016087         1.723923
 C         0.968008         2.313415         1.405186
 C         2.114867         1.441425         1.204462
 O         1.854615         0.707289        -0.042769
 C         0.931706        -0.016512         0.750030
 C         0.311687        -1.222012        -0.010307
 C         1.552925         0.213813         2.025940
 O         1.959634        -0.444464         3.147295
 H        -1.026353         1.117588         3.419542
 H        -2.075577         0.893396         1.996822
 H        -1.040336        -0.494969         2.707124
 H         0.764584         3.007075         0.518061
 H         0.999418         2.961261         2.318506
 H         3.146460         1.796194         1.271014
 H        -0.555329        -1.639797         0.468229
 H        -0.023171        -0.756833        -0.969908
 H         0.984529        -2.027010        -0.238977
 H         1.882144         0.123448         3.950617
