19
Iteration:  3561charge 0 multiplicity 1
 C        -1.116150         0.762847         2.292415
 C         0.240911         1.013428         1.807774
 C         0.923142         2.302566         1.507644
 C         2.181712         1.603774         1.250308
 O         1.906139         0.747778        -0.042105
 C         0.876827        -0.017446         0.684344
 C         0.378313        -1.375628         0.228732
 C         1.538841         0.253398         1.987410
 O         1.894201        -0.570637         2.985348
 H        -1.191201         0.787809         3.449015
 H        -1.928056         1.410609         1.905861
 H        -1.528945        -0.300063         2.029166
 H         0.627552         2.757153         0.600287
 H         0.903143         2.944856         2.294177
 H         3.226370         1.882933         1.174931
 H         0.446826        -2.140073         1.040382
 H        -0.771093        -1.479956        -0.052555
 H         1.123442        -1.761753        -0.511498
 H         2.558166        -0.205393         3.580952
