19
Iteration:  1983charge 0 multiplicity 1
 C        -1.106869         0.780610         2.518752
 C         0.204185         0.990091         1.760486
 C         1.001334         2.295027         1.530404
 C         2.223845         1.490151         1.171922
 O         1.753133         0.826040        -0.083669
 C         0.864145        -0.036610         0.700352
 C         0.530710        -1.312049         0.095141
 C         1.575201         0.238834         1.963247
 O         1.828657        -0.636599         2.995624
 H        -1.969534         1.370551         2.052765
 H        -1.531674        -0.309531         2.478760
 H        -0.954833         1.123378         3.573515
 H         0.739535         2.841166         0.645895
 H         1.111009         2.924598         2.441587
 H         3.271816         1.935143         1.260670
 H        -0.061375        -2.028334         0.803277
 H        -0.147017        -1.176642        -0.756255
 H         1.531457        -1.740496        -0.067033
 H         1.741058        -0.084466         3.792535
