19
Iteration:  2837charge 0 multiplicity 1
 C        -1.097764         0.685380         2.173288
 C         0.282788         0.929923         1.815959
 C         0.929843         2.320851         1.469725
 C         2.197577         1.414894         1.212394
 O         1.841971         0.707511        -0.003841
 C         0.830302        -0.084340         0.767769
 C         0.150110        -1.166869         0.094364
 C         1.594574         0.221609         2.082717
 O         2.110377        -0.366575         3.179206
 H        -1.302692         1.090686         3.185873
 H        -1.714555         1.342204         1.536069
 H        -1.375716        -0.416300         2.201323
 H         0.527285         2.695864         0.458549
 H         1.003875         3.032730         2.305153
 H         3.143781         1.887312         1.245278
 H        -0.504256        -1.663771         0.853241
 H        -0.572326        -0.921819        -0.801223
 H         0.920231        -1.912354        -0.316471
 H         2.550228        -1.199090         2.855335
