19
Iteration:  2859charge 0 multiplicity 1
 C        -1.296107         0.675015         2.244124
 C         0.143976         1.033527         1.777049
 C         0.994304         2.326116         1.508541
 C         2.257804         1.378053         1.210695
 O         1.885293         0.656366        -0.076186
 C         0.887930        -0.023474         0.726732
 C         0.239829        -1.209554         0.148372
 C         1.483435         0.287818         2.067642
 O         2.190964        -0.373511         3.167084
 H        -1.363943         0.636773         3.358649
 H        -2.120447         1.315873         1.895671
 H        -1.451246        -0.400874         1.941247
 H         0.677356         2.987069         0.613467
 H         1.331979         2.853532         2.396577
 H         3.306998         1.475906         1.260285
 H        -0.411832        -1.677123         0.896177
 H        -0.517060        -0.919701        -0.710451
 H         0.982288        -1.944294        -0.322724
 H         2.375273        -1.210155         2.737365
