19
Iteration:  3781charge 0 multiplicity 1
 C        -1.141108         0.782394         2.279475
 C         0.246153         0.946928         1.812392
 C         0.963636         2.328134         1.562095
 C         2.151101         1.473387         1.165037
 O         1.779593         0.756670        -0.155758
 C         0.863393         0.029396         0.796522
 C         0.444707        -1.282107         0.256983
 C         1.603072         0.245942         1.984423
 O         2.017151        -0.604984         3.021834
 H        -1.531593         1.276697         3.204331
 H        -1.860101         1.131395         1.575927
 H        -1.491062        -0.264350         2.476068
 H         0.401466         3.043976         0.745868
 H         1.064477         2.861545         2.527651
 H         3.174006         1.850397         1.052263
 H         0.078254        -1.966069         0.998152
 H        -0.366497        -1.240226        -0.551743
 H         1.298396        -1.670651        -0.265254
 H         1.476654        -0.497742         3.801003
