19
Iteration:   694
 C        -1.178420         0.736906         2.312139
 C         0.196083         1.007966         1.643998
 C         0.894182         2.370468         1.504772
 C         2.193201         1.476042         1.239097
 O         1.800413         0.693497        -0.132766
 C         0.990868        -0.060189         0.784257
 C         0.309180        -1.277897         0.225844
 C         1.563502         0.278169         2.088636
 O         2.130358        -0.574609         3.039225
 H        -1.121755         0.854194         3.407506
 H        -1.879077         1.482350         1.985368
 H        -1.695122        -0.147976         1.988625
 H         0.683773         3.041623         0.619895
 H         0.866096         2.982204         2.390296
 H         3.149275         1.937811         1.023178
 H        -0.313746        -1.691919         0.930964
 H        -0.368197        -0.900970        -0.532079
 H         0.989386        -2.189919        -0.131356
 H         1.740580        -0.409914         3.934188
