19
Iteration:     4charge 0 multiplicity 1
 C        -1.130320         0.761422         2.300326
 C         0.204279         0.968401         1.743137
 C         0.929039         2.265454         1.438289
 C         2.183704         1.465226         1.159436
 O         1.855813         0.722609        -0.057066
 C         0.953083        -0.031619         0.763162
 C         0.341045        -1.276061         0.156454
 C         1.568377         0.301609         2.071677
 O         1.965831        -0.530127         3.094393
 H        -1.287134         1.378246         3.256680
 H        -1.942094         1.091518         1.627739
 H        -1.274458        -0.382145         2.491021
 H         0.556728         2.783445         0.495990
 H         1.050131         2.864000         2.398481
 H         3.180012         1.977833         1.150207
 H        -0.278545        -1.853047         0.997630
 H        -0.272581        -1.200464        -0.728074
 H         1.213847        -1.927024        -0.079305
 H         1.876933        -0.025087         3.910073
