19
Iteration:   508charge 0 multiplicity 1
 C        -1.195944         0.840491         2.170440
 C         0.237490         0.952232         1.786709
 C         0.907223         2.308099         1.496051
 C         2.203940         1.489221         1.151197
 O         1.717150         0.737100        -0.062245
 C         0.910575        -0.014099         0.825231
 C         0.335914        -1.348338         0.212137
 C         1.579058         0.259021         2.119492
 O         2.135076        -0.597933         3.044509
 H        -1.400528         1.175296         3.190744
 H        -1.756908         1.506943         1.572274
 H        -1.548587        -0.135088         1.911911
 H         0.480773         3.084616         0.834431
 H         0.980820         2.710181         2.501026
 H         3.106924         1.966081         0.872043
 H        -0.043469        -2.014099         0.906820
 H        -0.347293        -1.201710        -0.555316
 H         1.235650        -1.920584        -0.163662
 H         2.475492        -0.001750         3.789736
