19
Iteration:  3162
 C        -1.098327         0.777094         2.437639
 C         0.192938         0.988458         1.713418
 C         0.953781         2.331354         1.458438
 C         2.206518         1.468672         1.176702
 O         1.932827         0.751803        -0.017921
 C         0.933131        -0.066164         0.709138
 C         0.295300        -1.354606         0.170050
 C         1.517381         0.310541         2.001439
 O         1.877951        -0.482203         3.054820
 H        -1.005088         1.068224         3.461475
 H        -1.876622         1.384783         1.933271
 H        -1.382298        -0.274128         2.540147
 H         0.550084         2.900444         0.574422
 H         0.903524         2.797081         2.426302
 H         3.286516         1.840672         1.193529
 H        -0.337068        -1.719010         0.966788
 H        -0.239783        -1.289686        -0.785454
 H         1.148909        -2.102848         0.125291
 H         2.524917        -1.133332         2.682233
