19
Iteration:  2353charge 0 multiplicity 1
 C        -1.036008         0.861968         2.497145
 C         0.258825         0.910984         1.724874
 C         0.886510         2.304227         1.443941
 C         2.173828         1.611655         1.091719
 O         1.832817         0.743967        -0.106264
 C         0.941062         0.004866         0.723478
 C         0.442803        -1.309528         0.178608
 C         1.633464         0.149888         1.952764
 O         1.781676        -0.648634         3.130892
 H        -0.853967         0.840931         3.526825
 H        -1.548834         1.880423         2.427378
 H        -1.707015        -0.012637         2.314735
 H         0.318076         2.890380         0.764635
 H         1.184776         2.844796         2.340560
 H         3.058920         2.052262         0.916010
 H         0.583997        -2.159061         0.925678
 H        -0.417192        -1.227051        -0.490991
 H         1.206158        -1.649060        -0.581285
 H         1.291880        -0.160494         3.816227
