19
Iteration:  2317charge 0 multiplicity 1
 C        -1.155499         0.670290         2.413204
 C         0.237955         1.035588         1.770633
 C         0.973517         2.347384         1.435133
 C         2.215015         1.428835         1.191969
 O         1.827485         0.704564        -0.096150
 C         0.926491        -0.042100         0.724083
 C         0.346316        -1.259875         0.187532
 C         1.572917         0.312956         2.036083
 O         1.942554        -0.554608         3.013595
 H        -1.051121         0.812095         3.542385
 H        -1.960980         1.303079         2.043197
 H        -1.523385        -0.336599         2.196237
 H         0.692628         3.039223         0.592425
 H         1.127422         2.976869         2.351400
 H         3.194991         1.772484         1.501643
 H        -0.079442        -2.016623         0.841874
 H        -0.626760        -0.969607        -0.468400
 H         1.194684        -1.638846        -0.504935
 H         1.869568        -0.020302         3.824253
