19
Iteration:  4478charge 0 multiplicity 1
 C        -1.215878         0.751259         2.236401
 C         0.210596         0.979483         1.824190
 C         0.856696         2.367096         1.484096
 C         2.156375         1.479347         1.229052
 O         1.864739         0.687139         0.000550
 C         0.915238         0.004532         0.792624
 C         0.357267        -1.278074         0.219601
 C         1.546002         0.350220         2.004560
 O         2.189244        -0.630145         2.925500
 H        -1.531084         1.257994         3.159673
 H        -1.943205         1.046994         1.582257
 H        -1.303017        -0.331267         2.486048
 H         0.333504         2.702842         0.615214
 H         0.589459         3.060067         2.326123
 H         3.167749         1.811081         1.294888
 H        -0.740073        -1.162750         0.091048
 H         0.802733        -1.539027        -0.820152
 H         0.391017        -2.121887         0.864079
 H         2.023980        -0.242574         3.804361
