19
Iteration:   400
 C        -1.085637         0.656306         2.416072
 C         0.226326         1.008753         1.770931
 C         0.937243         2.323414         1.500436
 C         2.180658         1.485193         1.168280
 O         1.846344         0.705145        -0.094020
 C         0.962982        -0.100230         0.691108
 C         0.301812        -1.270836         0.063921
 C         1.570755         0.219389         1.998809
 O         1.934578        -0.433844         3.183585
 H        -1.826966         1.473540         2.814769
 H        -1.676387         0.160882         1.613300
 H        -0.974355        -0.056364         3.231563
 H         0.579048         3.009402         0.712562
 H         1.032239         2.904592         2.389238
 H         3.219664         1.749452         1.213429
 H        -0.478851        -1.715451         0.608834
 H        -0.179878        -0.848312        -0.926322
 H         1.077617        -2.071327        -0.353324
 H         2.161704         0.427930         3.660383
