19
Iteration:  2926
 C        -1.140315         0.826229         2.500754
 C         0.197749         0.967840         1.707949
 C         0.986799         2.286156         1.390890
 C         2.284776         1.520620         1.119997
 O         1.806640         0.760903        -0.082399
 C         0.935590        -0.021750         0.741652
 C         0.444910        -1.348613         0.183818
 C         1.572166         0.296102         2.010719
 O         1.780864        -0.575164         3.111036
 H        -0.963199         0.937844         3.636922
 H        -1.909624         1.504155         2.167093
 H        -1.497987        -0.245741         2.450407
 H         0.418196         2.826692         0.518211
 H         1.021738         2.799278         2.372614
 H         3.146204         2.011329         1.178301
 H        -0.143470        -1.918806         0.920830
 H        -0.307883        -1.086370        -0.719897
 H         1.297826        -1.951414        -0.282173
 H         2.707542        -0.922470         3.138480
