19
Iteration:   367charge 0 multiplicity 1
 C        -1.237538         0.712650         2.299719
 C         0.190316         0.927926         1.650701
 C         0.893775         2.216216         1.451595
 C         2.171535         1.466311         1.283046
 O         1.902273         0.711185        -0.006173
 C         0.885217        -0.067704         0.795528
 C         0.207826        -1.208131         0.105486
 C         1.610223         0.229062         2.001365
 O         2.249786        -0.365417         3.116729
 H        -1.735340         1.629333         2.813887
 H        -1.949387         0.394180         1.505013
 H        -1.277790        -0.146003         2.976995
 H         0.626783         2.885403         0.600728
 H         0.935595         2.744969         2.379498
 H         3.189951         1.720493         1.230251
 H        -0.648170        -1.596892         0.614614
 H        -0.142459        -0.711602        -0.898773
 H         0.941083        -2.108821        -0.113311
 H         1.544498        -0.414695         3.785889
