19
Iteration:  1932charge 0 multiplicity 1
 C        -1.159638         0.752274         2.521319
 C         0.251938         0.905615         1.794447
 C         0.865309         2.312640         1.470295
 C         2.250295         1.433402         1.188591
 O         1.886484         0.802831         0.002722
 C         0.990472        -0.041618         0.604994
 C         0.350737        -1.306271         0.065178
 C         1.561250         0.305808         1.949915
 O         1.925171        -0.554864         3.029908
 H        -1.799048         1.700736         2.580716
 H        -1.835944         0.140850         1.987408
 H        -1.071682         0.424069         3.522716
 H         0.611982         2.964969         0.564952
 H         0.948251         2.766135         2.451109
 H         3.189812         1.829317         1.191639
 H         0.046218        -1.873169         0.953029
 H        -0.521870        -0.953091        -0.656594
 H         1.086892        -1.954730        -0.366138
 H         1.598052        -0.115351         3.815910
