19
Iteration:  3890charge 0 multiplicity 1
 C        -1.099052         0.689633         2.364221
 C         0.219977         0.913855         1.800603
 C         0.932587         2.210769         1.444838
 C         2.133771         1.431748         1.086581
 O         1.849098         0.847527        -0.096414
 C         0.961092        -0.038849         0.760512
 C         0.287548        -1.234399         0.133924
 C         1.513655         0.280835         2.052486
 O         2.056660        -0.530209         3.138022
 H        -0.995729         0.757277         3.421435
 H        -1.589623         1.588146         1.968140
 H        -1.619859        -0.110278         1.748282
 H         0.383145         2.872854         0.786957
 H         1.045150         2.843355         2.283154
 H         3.168735         1.848864         1.124733
 H        -0.387510        -1.787032         0.746571
 H        -0.262527        -0.821261        -0.770364
 H         1.109339        -1.866285        -0.014376
 H         1.823746        -0.206733         4.030654
