19
Iteration:  3232
 C        -1.227940         0.692623         2.272645
 C         0.210639         0.951886         1.759976
 C         0.919416         2.342962         1.561038
 C         2.267452         1.392952         1.166898
 O         1.928006         0.679663        -0.048553
 C         0.863513        -0.016077         0.697131
 C         0.083230        -1.228455         0.004598
 C         1.545735         0.224137         2.084826
 O         2.191104        -0.346221         3.238221
 H        -1.657783         1.563865         2.886360
 H        -1.941551         0.624548         1.510865
 H        -1.051633        -0.386082         2.656912
 H         0.565653         2.824074         0.621702
 H         1.215123         2.849118         2.553470
 H         3.252931         1.790432         1.176323
 H        -0.736219        -1.531520         0.703696
 H        -0.294909        -0.988006        -0.978243
 H         0.878274        -1.906247        -0.117904
 H         2.484656        -1.245523         3.106365
