19
Iteration:  4038charge 0 multiplicity 1
 C        -1.230570         0.733705         2.101635
 C         0.185584         0.980932         1.763321
 C         0.966255         2.319795         1.573132
 C         2.156504         1.388338         1.238505
 O         1.765739         0.777610        -0.040144
 C         0.907197        -0.040078         0.740015
 C         0.254107        -1.218699         0.311260
 C         1.583200         0.221942         2.076461
 O         2.209010        -0.564929         2.933509
 H        -1.416795         1.460153         2.913556
 H        -1.840521         0.927821         1.224656
 H        -1.296993        -0.230687         2.526791
 H         0.679873         3.118611         0.820443
 H         1.059259         2.840746         2.595248
 H         3.199731         1.667638         1.300552
 H        -0.099580        -1.694365         1.204021
 H        -0.484986        -0.978376        -0.409241
 H         1.073892        -1.780150        -0.213949
 H         2.222779        -0.128548         3.795765
