19
Iteration:  1646
 C        -1.165576         0.749230         2.225415
 C         0.248602         0.924813         1.672920
 C         0.896212         2.303128         1.497753
 C         2.125852         1.540470         1.304096
 O         1.916979         0.711807        -0.034603
 C         0.894226        -0.105287         0.764023
 C         0.271053        -1.289772         0.134330
 C         1.548831         0.240603         2.031833
 O         2.126904        -0.455031         3.056612
 H        -1.207035         0.822007         3.392421
 H        -2.000593         1.441923         2.024950
 H        -1.579769        -0.248027         2.152567
 H         0.500414         2.867577         0.582864
 H         0.743214         2.713600         2.472034
 H         3.149252         1.927748         1.235122
 H         0.015903        -1.965508         1.000190
 H        -0.610024        -0.969256        -0.596893
 H         0.993050        -1.791299        -0.367475
 H         2.031549        -0.024751         3.892968
