19
Iteration:  4135
 C        -1.045989         0.678015         2.483553
 C         0.252363         0.987771         1.702919
 C         0.953220         2.349438         1.497719
 C         2.165894         1.474048         1.221601
 O         1.846301         0.671886        -0.086393
 C         0.946849        -0.070012         0.646689
 C         0.324343        -1.230004         0.107864
 C         1.565186         0.253504         1.999094
 O         1.907388        -0.465701         3.056141
 H        -0.889716         1.028892         3.616761
 H        -2.037350         1.176648         2.346695
 H        -1.180493        -0.389614         2.584748
 H         0.603692         2.914385         0.634363
 H         0.835382         2.959718         2.321259
 H         3.186308         1.800387         1.097331
 H        -0.196934        -1.663361         0.952700
 H        -0.240473        -1.136571        -0.784072
 H         1.268464        -1.815857        -0.220154
 H         1.210185        -0.245792         3.722301
