19
Iteration:  3163
 C        -1.100968         0.778376         2.444335
 C         0.196626         0.979466         1.715825
 C         0.947847         2.332747         1.452185
 C         2.208252         1.473407         1.174596
 O         1.934961         0.755426        -0.015811
 C         0.927899        -0.063468         0.709884
 C         0.289963        -1.360134         0.164511
 C         1.527463         0.305449         2.000607
 O         1.877817        -0.484679         3.061820
 H        -1.046555         1.120653         3.427235
 H        -1.860890         1.355884         1.944457
 H        -1.399249        -0.286693         2.488583
 H         0.573021         2.940780         0.576158
 H         0.935775         2.815985         2.427530
 H         3.276249         1.837448         1.190260
 H        -0.346996        -1.705012         0.949425
 H        -0.226062        -1.311463        -0.761814
 H         1.128273        -2.084120         0.126309
 H         2.551143        -1.116182         2.663432
