19
Iteration:  2106charge 0 multiplicity 1
 C        -1.161540         0.763156         2.358407
 C         0.154979         0.954955         1.689239
 C         0.967303         2.272384         1.563290
 C         2.188896         1.427888         1.243486
 O         1.845080         0.794194        -0.033718
 C         0.933367        -0.033554         0.734265
 C         0.260109        -1.260325         0.075386
 C         1.610459         0.195903         1.994614
 O         2.085549        -0.536399         3.035947
 H        -1.917927         0.895529         1.578567
 H        -1.194053        -0.263030         2.711872
 H        -1.453211         1.367246         3.220616
 H         0.729553         3.149655         0.971778
 H         1.059767         2.714320         2.539784
 H         3.156412         1.768069         1.305627
 H        -0.251368        -1.831728         0.788536
 H        -0.663924        -0.929667        -0.514523
 H         0.875798        -1.769642        -0.551342
 H         1.891421         0.166822         3.714397
