19
Iteration:  1483
 C        -1.126625         0.662625         2.195521
 C         0.286779         0.963280         1.928339
 C         0.873666         2.265567         1.451911
 C         2.183482         1.548128         1.137626
 O         1.818984         0.677256        -0.044816
 C         0.946425        -0.071008         0.728865
 C         0.201944        -1.121211         0.015557
 C         1.633940         0.252027         2.087683
 O         2.086864        -0.516892         3.211644
 H        -1.848881         1.272356         1.591756
 H        -1.289578        -0.393114         1.920353
 H        -1.268911         0.696828         3.251765
 H         0.225583         2.838805         0.680876
 H         1.098297         2.808075         2.331772
 H         3.289247         1.792202         1.126412
 H        -0.477424        -1.703100         0.747929
 H        -0.421111        -0.651625        -0.849848
 H         0.825580        -1.840013        -0.387414
 H         1.944449        -0.139267         4.087706
