19
Iteration:  1180charge 0 multiplicity 1
 C        -1.163160         0.779035         2.386692
 C         0.232836         1.036290         1.788774
 C         0.968885         2.291251         1.581134
 C         2.229333         1.472345         1.211786
 O         1.825063         0.812098        -0.085958
 C         0.976578         0.004295         0.701974
 C         0.379404        -1.170302         0.136492
 C         1.539141         0.240337         2.050215
 O         1.919573        -0.788305         2.927972
 H        -1.463029         1.453002         3.192083
 H        -2.000080         0.701245         1.663953
 H        -1.228050        -0.236848         2.821661
 H         0.773437         2.949055         0.744712
 H         0.811052         2.984151         2.486365
 H         3.211410         2.053112         1.137716
 H        -0.153228        -1.856171         0.940323
 H        -0.475496        -0.989516        -0.479817
 H         1.170622        -1.692060        -0.331099
 H         2.042421        -0.350185         3.768650
