19
Iteration:  2011
 C        -1.132347         0.726471         2.402984
 C         0.208073         1.029718         1.745822
 C         0.908343         2.327339         1.614090
 C         2.188098         1.480548         1.176085
 O         1.877685         0.771818        -0.043904
 C         0.927038        -0.061965         0.649504
 C         0.334854        -1.284458         0.098041
 C         1.510637         0.316956         1.998702
 O         2.000396        -0.654536         2.973385
 H        -1.954798         0.840479         1.694662
 H        -1.128729        -0.230561         2.877091
 H        -1.284122         1.449235         3.211653
 H         0.575631         3.069580         0.819570
 H         1.095326         2.946947         2.510997
 H         3.177694         1.887677         1.524471
 H        -0.273054        -1.474426         0.942399
 H        -0.366448        -1.324907        -0.774386
 H         1.209544        -2.031237        -0.001410
 H         2.121329        -0.187231         3.798741
