19
Iteration:  2564charge 0 multiplicity 1
 C        -0.998952         0.748026         2.508124
 C         0.246503         1.013572         1.738137
 C         0.936664         2.386152         1.501054
 C         2.172489         1.454155         1.107303
 O         1.894647         0.744645        -0.077453
 C         0.900125         0.038611         0.681296
 C         0.391423        -1.256086         0.126148
 C         1.539273         0.270471         2.013099
 O         1.788962        -0.682009         3.025717
 H        -2.005774         0.933212         2.107240
 H        -0.998689        -0.317415         2.871762
 H        -0.789301         1.363558         3.430600
 H         0.638936         2.985331         0.636176
 H         0.964195         2.976150         2.425044
 H         3.210855         1.953706         1.180682
 H         0.239918        -2.001895         0.984073
 H        -0.438008        -1.254596        -0.615405
 H         1.216140        -1.796814        -0.434670
 H         1.327435        -0.461687         3.840133
