19
Iteration:  1652charge 0 multiplicity 1
 C        -1.167124         0.741593         2.245144
 C         0.238678         0.935083         1.705610
 C         0.808920         2.274851         1.454212
 C         2.138280         1.469180         1.247818
 O         1.887351         0.716454         0.003372
 C         0.916120        -0.105973         0.770739
 C         0.255252        -1.254204         0.098707
 C         1.588471         0.256598         2.068482
 O         2.159914        -0.440257         3.076938
 H        -1.285321         0.765350         3.305394
 H        -1.761792         1.614399         1.882087
 H        -1.506472        -0.250274         1.826328
 H         0.625971         2.991323         0.672604
 H         0.830471         2.812926         2.472215
 H         3.168056         1.824097         1.341591
 H        -0.149477        -1.886142         0.883216
 H        -0.557450        -0.965488        -0.485821
 H         1.061485        -1.851021        -0.523551
 H         2.040612        -0.040635         3.961817
