19
Iteration:  3520charge 0 multiplicity 1
 C        -1.067743         0.621268         2.393018
 C         0.210535         0.944222         1.679786
 C         0.944190         2.313643         1.441202
 C         2.251681         1.541679         1.194003
 O         1.887453         0.699398        -0.015302
 C         0.920462        -0.019302         0.759347
 C         0.288515        -1.219111         0.113039
 C         1.531161         0.279767         2.039647
 O         1.926113        -0.544697         3.072143
 H        -1.181657         1.272630         3.306654
 H        -1.853892         0.786659         1.712654
 H        -1.196931        -0.377517         2.715864
 H         0.536095         2.896524         0.589334
 H         0.906107         2.942049         2.405118
 H         3.106055         2.224687         1.067514
 H        -0.064449        -2.010921         0.713783
 H        -0.589796        -0.943120        -0.476191
 H         1.039042        -1.666261        -0.522017
 H         1.897847         0.090082         3.846204
