19
Iteration:  1845
 C        -1.180053         0.732526         2.186986
 C         0.204547         0.936758         1.708126
 C         0.894281         2.232983         1.532509
 C         2.163104         1.453165         1.168321
 O         1.882186         0.810582         0.017705
 C         0.911587        -0.041037         0.748239
 C         0.213176        -1.271101         0.174470
 C         1.614645         0.233756         2.104706
 O         2.165546        -0.498306         3.059572
 H        -1.358130         1.194241         3.211405
 H        -1.876337         1.345617         1.555969
 H        -1.570438        -0.269381         2.168842
 H         0.592596         2.899493         0.638423
 H         0.905957         2.862633         2.408776
 H         3.125302         1.894133         1.061655
 H        -0.446817        -1.844509         0.872474
 H        -0.499434        -1.023304        -0.706259
 H         1.000907        -1.895657        -0.228283
 H         2.076391        -0.243832         4.012041
