19
Iteration:  4450charge 0 multiplicity 1
 C        -1.211688         0.696865         2.163252
 C         0.259693         0.837765         1.798405
 C         0.949043         2.287527         1.494055
 C         2.135532         1.495500         1.091138
 O         1.749189         0.839618        -0.067660
 C         0.963154        -0.070114         0.767741
 C         0.249977        -1.200182         0.174946
 C         1.625116         0.349761         2.107112
 O         2.233407        -0.593719         3.165431
 H        -1.417093         1.464988         2.940660
 H        -1.912833         0.918279         1.215786
 H        -1.565263        -0.223648         2.681728
 H         0.364227         2.790300         0.650189
 H         0.954693         2.790108         2.470174
 H         3.197226         1.846652         1.172546
 H        -0.811432        -1.009483         0.342479
 H         0.365008        -1.318925        -0.933485
 H         0.499486        -2.194559         0.629547
 H         1.527950        -0.521443         3.818336
