19
Iteration:  3438
 C        -1.237921         0.686417         2.307411
 C         0.174879         0.905394         1.767966
 C         1.006245         2.403480         1.546347
 C         2.116457         1.429244         1.236824
 O         1.921039         0.711557        -0.027960
 C         0.937434        -0.090797         0.682758
 C         0.224914        -1.209594         0.054958
 C         1.507349         0.172224         2.037911
 O         2.206045        -0.342359         3.092627
 H        -1.618116         1.509010         2.848352
 H        -2.022094         0.701057         1.559702
 H        -1.270812        -0.294545         2.914317
 H         0.600165         3.074605         0.837446
 H         1.089910         2.850404         2.464113
 H         3.118031         1.819696         1.334226
 H        -0.771887        -1.303190         0.645408
 H         0.121549        -1.125229        -1.039922
 H         0.697277        -2.236331         0.117580
 H         1.841837        -1.209788         3.385062
