19
Iteration:  1616charge 0 multiplicity 1
 C        -1.147712         0.743047         2.353943
 C         0.215760         0.993536         1.759601
 C         0.935807         2.316533         1.451613
 C         2.142043         1.433625         1.151639
 O         1.901411         0.827380        -0.082371
 C         0.940389        -0.044982         0.724786
 C         0.481594        -1.294979         0.251583
 C         1.528764         0.326560         2.029680
 O         1.882318        -0.599617         2.982688
 H        -1.372918         1.226850         3.298150
 H        -2.014149         0.765166         1.696720
 H        -1.268147        -0.306676         2.657217
 H         0.373246         3.005368         0.723350
 H         0.968318         2.665241         2.435178
 H         3.241034         1.748132         1.212818
 H         0.272879        -1.808650         1.275188
 H        -0.467133        -1.251933        -0.384666
 H         1.200348        -1.943163        -0.173689
 H         1.925959        -0.178425         3.878201
