19
Iteration:  2044charge 0 multiplicity 1
 C        -1.185637         0.675116         2.220725
 C         0.219719         0.922639         1.827487
 C         0.910016         2.273629         1.489978
 C         2.219673         1.428892         1.192536
 O         1.827649         0.809347        -0.027546
 C         0.965377        -0.039431         0.833860
 C         0.154049        -1.099627         0.141517
 C         1.605868         0.338009         2.107369
 O         2.161207        -0.647036         2.961625
 H        -1.806867         0.355759         1.299152
 H        -1.229533        -0.134056         2.936891
 H        -1.701071         1.561042         2.632476
 H         0.552718         2.758683         0.515775
 H         1.000614         2.927957         2.389048
 H         3.270259         1.870973         1.442213
 H        -0.558318        -1.544707         0.830553
 H        -0.226683        -0.644989        -0.822408
 H         0.663005        -2.131828        -0.133101
 H         2.112799        -0.366459         3.912015
