19
Iteration:  2321
 C        -1.124502         0.697849         2.423786
 C         0.236924         1.037820         1.766875
 C         0.962062         2.347958         1.429854
 C         2.219777         1.435991         1.207535
 O         1.794150         0.713182        -0.107781
 C         0.932218        -0.037465         0.706963
 C         0.353151        -1.280399         0.152741
 C         1.606407         0.351758         2.075184
 O         1.914925        -0.579060         3.026575
 H        -1.024315         0.717287         3.446523
 H        -1.946308         1.407207         2.079406
 H        -1.502859        -0.334678         2.220463
 H         0.615570         2.894465         0.595814
 H         1.190264         2.898658         2.318074
 H         3.206964         1.791446         1.411914
 H         0.060931        -2.088357         0.879194
 H        -0.442957        -1.050835        -0.436298
 H         1.055065        -1.726842        -0.528952
 H         1.766852        -0.055392         3.861299
