19
Iteration:  1187
 C        -1.193878         0.753325         2.381210
 C         0.293638         0.988584         1.798709
 C         1.009335         2.265297         1.555361
 C         2.253624         1.495764         1.185652
 O         1.761888         0.856669        -0.056752
 C         0.992814        -0.010849         0.725643
 C         0.377743        -1.220841         0.144267
 C         1.584677         0.266875         2.044260
 O         1.836410        -0.757540         2.925401
 H        -1.229441         1.430119         3.262466
 H        -2.077699         0.920053         1.772330
 H        -1.295678        -0.230038         2.799180
 H         0.661640         2.987759         0.769276
 H         1.104073         2.936726         2.393426
 H         3.155580         2.151084         1.168524
 H         0.078751        -2.031443         0.786248
 H        -0.463617        -0.894273        -0.609619
 H         1.240991        -1.651461        -0.409339
 H         1.991111        -0.427087         3.850992
