19
Iteration:  2395charge 0 multiplicity 1
 C        -1.114247         0.775637         2.484195
 C         0.191898         1.065869         1.650553
 C         0.978345         2.365482         1.450593
 C         2.185800         1.433337         1.265113
 O         1.824489         0.717444        -0.044685
 C         0.817266        -0.032275         0.666333
 C         0.399829        -1.336851         0.149495
 C         1.569968         0.267723         1.963164
 O         1.965726        -0.576778         3.033516
 H        -0.893506         0.738189         3.603612
 H        -1.969808         1.493683         2.334966
 H        -1.470733        -0.263463         2.296260
 H         0.894620         2.921919         0.509917
 H         1.068538         2.939368         2.397121
 H         3.092792         1.858947         1.390357
 H         0.190610        -1.973484         1.059425
 H        -0.433532        -1.314972        -0.655948
 H         1.254836        -1.853297        -0.414805
 H         1.830388        -0.023910         3.805511
