19
Iteration:   204charge 0 multiplicity 1
 C        -1.157141         0.734933         2.468654
 C         0.209567         0.976269         1.804154
 C         0.946433         2.259908         1.457131
 C         2.199117         1.455554         1.177403
 O         1.933128         0.686767        -0.105162
 C         0.948049        -0.085844         0.667726
 C         0.315800        -1.281462         0.090443
 C         1.540221         0.249018         1.993910
 O         1.973966        -0.351173         3.124997
 H        -1.298258         1.416459         3.379617
 H        -1.936975         0.878994         1.670022
 H        -1.325495        -0.246745         2.913988
 H         0.577670         2.855063         0.537648
 H         0.981626         2.962290         2.326561
 H         3.167091         1.766594         1.032847
 H        -0.282531        -1.797985         0.763484
 H        -0.340145        -0.995587        -0.781571
 H         1.145606        -1.990735        -0.184745
 H         1.339857        -0.672352         3.819230
