19
Iteration:  3866
 C        -1.268684         0.712944         2.306798
 C         0.164342         0.999753         1.745888
 C         0.912654         2.332084         1.470648
 C         2.168413         1.556780         1.274926
 O         1.841394         0.620070        -0.011489
 C         0.924053        -0.018438         0.803487
 C         0.292146        -1.272313         0.119952
 C         1.677432         0.313095         2.005858
 O         2.143833        -0.576264         2.992744
 H        -1.080373         0.581908         3.350004
 H        -1.938470         1.614359         2.023443
 H        -1.600740        -0.119142         1.551204
 H         0.386742         2.876360         0.788704
 H         0.997702         3.048039         2.261219
 H         3.227849         1.795374         1.285485
 H        -0.289451        -1.768709         0.896917
 H        -0.525183        -0.792025        -0.520081
 H         0.997876        -2.056188        -0.249525
 H         2.181496        -0.132185         3.890198
