19
Iteration:  2382charge 0 multiplicity 1
 C        -1.056389         0.807183         2.519078
 C         0.168485         0.955865         1.722054
 C         0.979402         2.306183         1.446401
 C         2.212359         1.458620         1.158950
 O         1.849080         0.803766        -0.061362
 C         0.963336        -0.047356         0.720621
 C         0.434231        -1.400896         0.150295
 C         1.459056         0.272640         1.992629
 O         1.851335        -0.540734         2.987660
 H        -0.780387         0.870612         3.660574
 H        -1.689970         1.673749         2.366559
 H        -1.648356        -0.070239         2.282216
 H         0.491724         3.058696         0.753476
 H         1.164722         2.911795         2.381211
 H         3.305833         1.712675         1.074174
 H         0.209878        -2.163851         0.880130
 H        -0.558572        -1.223089        -0.439222
 H         1.284304        -1.767325        -0.496540
 H         1.642041        -0.197894         3.896230
