19
Iteration:  4744charge 0 multiplicity 1
 C        -1.106824         0.820238         2.474145
 C         0.181095         0.970384         1.731143
 C         0.857201         2.222829         1.364901
 C         2.250492         1.392219         1.149468
 O         1.718050         0.853700        -0.061467
 C         0.875770        -0.013717         0.749116
 C         0.539569        -1.306447         0.131436
 C         1.626897         0.311419         2.125411
 O         1.942979        -0.542540         3.092131
 H        -0.926548         1.085362         3.550521
 H        -2.021968         1.327413         2.032418
 H        -1.396359        -0.324740         2.377101
 H         0.639027         2.916769         0.523661
 H         0.756193         2.931873         2.294412
 H         3.134135         2.003244         1.085279
 H         0.011668        -1.186572        -0.836420
 H         1.461488        -1.847102         0.004286
 H        -0.161474        -1.956416         0.713122
 H         1.790929        -1.441131         2.771979
