19
Iteration:   913
 C        -1.246232         0.730564         2.226094
 C         0.263581         0.883905         1.893983
 C         0.920507         2.291182         1.527552
 C         2.197458         1.497689         1.115951
 O         1.768963         0.811902         0.002962
 C         0.953617        -0.026839         0.778304
 C         0.225235        -1.179792         0.110863
 C         1.707256         0.219998         2.056024
 O         2.148950        -0.625128         3.047847
 H        -1.655277        -0.276248         1.865900
 H        -1.412815         0.585599         3.342656
 H        -1.777231         1.681781         1.890954
 H         0.591468         2.730904         0.573931
 H         1.102163         2.941256         2.354909
 H         3.204017         2.023249         0.925906
 H        -0.673807        -1.414683         0.544828
 H        -0.245137        -0.487286        -0.642017
 H         0.647856        -2.163936        -0.370094
 H         1.844583        -0.373229         3.910393
