19
Iteration:  3595charge 0 multiplicity 1
 C        -1.277027         0.884067         2.200178
 C         0.153253         0.950507         1.746588
 C         0.958400         2.291876         1.508955
 C         2.122387         1.537534         1.146062
 O         1.752444         0.705872        -0.063371
 C         0.973149        -0.000721         0.787224
 C         0.488170        -1.258837         0.282459
 C         1.502774         0.228103         2.074390
 O         2.159227        -0.656403         3.024426
 H        -1.196481         0.806887         3.386641
 H        -1.848024         1.745703         1.949189
 H        -1.802689        -0.084621         1.839610
 H         0.701029         2.908160         0.707502
 H         1.015294         2.832938         2.358352
 H         3.175566         1.846624         1.111045
 H         0.468305        -2.004068         1.056920
 H        -0.518611        -1.193228        -0.363006
 H         1.164682        -1.584427        -0.532271
 H         1.761231        -0.418828         3.866167
