19
Iteration:  4791
 C        -1.114157         0.696069         2.344937
 C         0.224700         0.918792         1.774430
 C         0.910739         2.311634         1.565385
 C         2.180104         1.519039         1.147753
 O         1.925071         0.741875        -0.021883
 C         0.912881        -0.105783         0.701717
 C         0.255005        -1.353974         0.098949
 C         1.514547         0.312751         2.023399
 O         1.983136        -0.412980         3.084305
 H        -1.212035         1.288831         3.294007
 H        -1.860264         1.138760         1.610005
 H        -1.372517        -0.344349         2.418254
 H         0.439136         3.163167         0.986442
 H         1.147868         2.828650         2.452939
 H         3.240194         1.821749         1.358848
 H        -0.701554        -1.113116        -0.452942
 H         0.867884        -1.810684        -0.635929
 H        -0.053216        -2.031177         1.005213
 H         2.924103        -0.542153         2.798223
