19
Iteration:  4587
 C        -1.093109         0.643131         2.433538
 C         0.186468         0.991440         1.756055
 C         0.900240         2.240289         1.451798
 C         2.205772         1.418134         1.215727
 O         1.840956         0.761756        -0.049053
 C         0.926475        -0.011069         0.744759
 C         0.265501        -1.237704         0.034396
 C         1.499660         0.263986         2.035915
 O         2.119102        -0.384112         3.067942
 H        -1.046775         1.109208         3.471341
 H        -2.004550         1.042509         1.891634
 H        -1.122779        -0.530945         2.542877
 H         0.415464         2.670914         0.522274
 H         0.960249         3.006493         2.360659
 H         3.128148         1.980194         1.228036
 H         0.504409        -1.213199        -1.027680
 H         0.845567        -2.156440         0.466119
 H        -0.726400        -1.390333         0.295110
 H         1.557565        -1.007847         3.589611
