19
Iteration:  3483
 C        -1.195170         0.654401         2.375862
 C         0.232324         0.943867         1.844321
 C         0.946249         2.241177         1.500725
 C         2.225567         1.478871         1.173171
 O         1.802701         0.739917        -0.115431
 C         0.978500        -0.076338         0.666649
 C         0.260696        -1.175616         0.019839
 C         1.559994         0.208601         2.048716
 O         2.085200        -0.401819         3.218717
 H        -1.649329         1.572436         2.780528
 H        -1.915628         0.590033         1.584345
 H        -1.219190        -0.246219         3.107569
 H         0.845735         2.858312         0.630526
 H         1.076160         2.871791         2.309744
 H         3.228703         1.851622         0.983592
 H        -0.563753        -1.607534         0.668872
 H         0.087780        -0.694786        -1.001189
 H         1.020307        -1.915672        -0.346455
 H         1.349476        -0.745574         3.794031
