19
Iteration:  1915
 C        -1.123375         0.694063         2.381283
 C         0.165722         0.941723         1.703416
 C         0.918047         2.245342         1.511852
 C         2.150003         1.443867         1.223107
 O         1.939624         0.796200        -0.126527
 C         0.958743        -0.040410         0.682601
 C         0.265785        -1.177879         0.141799
 C         1.525282         0.242099         2.065354
 O         2.028526        -0.543148         3.076509
 H        -1.570763         1.639670         2.534343
 H        -1.833392         0.016100         1.764118
 H        -0.846899         0.185127         3.384266
 H         0.584993         2.874444         0.701183
 H         1.013660         2.935680         2.370602
 H         3.227893         1.925395         1.417783
 H        -0.307899        -1.739350         0.883882
 H        -0.501640        -0.975669        -0.503361
 H         1.037939        -1.850977        -0.439912
 H         1.945542        -0.005942         3.877287
