19
Iteration:  1789
 C        -1.161073         0.791675         2.506401
 C         0.216491         1.005908         1.736573
 C         0.924054         2.321601         1.405892
 C         2.243265         1.564921         1.148892
 O         1.840237         0.736622        -0.085299
 C         0.860568         0.043420         0.725449
 C         0.539380        -1.405466         0.178521
 C         1.577569         0.290777         2.041929
 O         1.834671        -0.630993         3.032627
 H        -1.343981         0.456843         3.613781
 H        -1.713319         1.727412         2.344996
 H        -1.652948         0.042385         1.938658
 H         0.543951         2.865547         0.441880
 H         0.917401         2.935713         2.317037
 H         3.286264         1.971365         1.028784
 H         0.135848        -2.198263         0.930707
 H        -0.165885        -1.372690        -0.785509
 H         1.446685        -1.791276        -0.166959
 H         1.898145        -0.438700         3.960880
