19
Iteration:  3090
 C        -1.176088         0.777925         2.316746
 C         0.279732         0.939218         1.807189
 C         0.898265         2.386460         1.484769
 C         2.197860         1.416616         1.079206
 O         1.821112         0.695061        -0.080376
 C         0.981228        -0.086121         0.749810
 C         0.347239        -1.245506         0.131572
 C         1.580177         0.230235         2.028141
 O         1.897247        -0.464643         3.189846
 H        -1.078625         1.124893         3.416023
 H        -1.761875         1.472665         1.778358
 H        -1.591937        -0.224932         2.509452
 H         0.527785         2.916151         0.675014
 H         1.144610         2.828267         2.416221
 H         3.179413         1.767702         1.121444
 H        -0.045204        -1.926582         0.902258
 H        -0.445666        -0.817474        -0.479161
 H         1.094823        -1.717051        -0.470202
 H         2.733520        -0.894267         2.923518
