19
Iteration:  2273
 C        -1.173840         0.736369         2.210074
 C         0.225106         0.922816         1.741820
 C         0.896701         2.322100         1.519374
 C         2.162941         1.476543         1.250544
 O         1.845806         0.755164        -0.076967
 C         0.952512        -0.151497         0.797232
 C         0.144002        -1.169510         0.187534
 C         1.631303         0.206056         2.084842
 O         2.191161        -0.535537         3.047248
 H        -1.446184         1.563902         2.975294
 H        -1.797871         0.711584         1.318243
 H        -1.396079        -0.232845         2.664158
 H         0.552975         2.917857         0.621874
 H         0.843743         2.929903         2.464327
 H         3.237998         1.824442         1.154954
 H        -0.734912        -1.549587         0.725955
 H        -0.393899        -0.632119        -0.794894
 H         0.772050        -2.065168        -0.202713
 H         2.275240         0.137706         3.763557
