19
Iteration:  1494charge 0 multiplicity 1
 C        -1.199210         0.658786         2.250389
 C         0.302347         0.928338         1.879193
 C         0.923084         2.223368         1.490159
 C         2.168798         1.456489         1.083568
 O         1.861168         0.702368        -0.061657
 C         0.910489        -0.021862         0.822864
 C         0.213374        -1.130354         0.008117
 C         1.612511         0.242139         2.147954
 O         2.130594        -0.487242         3.177560
 H        -1.901679         1.393372         1.756792
 H        -1.405512        -0.275182         1.703448
 H        -1.607401         0.469361         3.207963
 H         0.652760         2.836436         0.537764
 H         0.942011         2.941829         2.238081
 H         3.071823         2.160120         1.105374
 H        -0.682022        -1.638566         0.515496
 H        -0.346008        -0.666432        -0.936636
 H         0.908416        -1.781393        -0.353466
 H         1.894019         0.070428         3.905408
