19
Iteration:  1842charge 0 multiplicity 1
 C        -1.192743         0.734772         2.188102
 C         0.189297         0.940308         1.694795
 C         0.909843         2.220021         1.514788
 C         2.150213         1.469167         1.188553
 O         1.887998         0.814095         0.019737
 C         0.911560        -0.043592         0.756151
 C         0.222702        -1.292495         0.163570
 C         1.625326         0.248018         2.094390
 O         2.155012        -0.495194         3.055178
 H        -1.328897         1.179091         3.212255
 H        -1.845013         1.476921         1.698881
 H        -1.543277        -0.281985         2.232837
 H         0.617835         2.925440         0.658684
 H         0.925204         2.815424         2.487713
 H         3.178012         1.917265         1.059339
 H        -0.455786        -1.899495         0.876152
 H        -0.548139        -1.052875        -0.694812
 H         0.980022        -1.947247        -0.206775
 H         2.105617        -0.308137         3.982410
