19
Iteration:   534
 C        -1.284661         0.725885         2.124873
 C         0.236464         0.939936         1.972961
 C         0.942319         2.321802         1.453951
 C         2.172150         1.404299         1.155520
 O         1.721597         0.725814        -0.058323
 C         0.947058        -0.054386         0.819827
 C         0.334066        -1.249092         0.186912
 C         1.608510         0.238799         2.070473
 O         2.199519        -0.500429         3.050546
 H        -1.749519         0.817333         3.158954
 H        -1.566670         1.746035         1.719133
 H        -1.741085         0.019585         1.419017
 H         0.562374         2.940743         0.643789
 H         1.067738         2.954562         2.347994
 H         3.249979         1.723197         1.030541
 H        -0.311419        -1.626564         1.019685
 H        -0.398292        -0.887768        -0.644932
 H         0.879964        -2.100454        -0.112331
 H         2.362606         0.113912         3.842865
