19
Iteration:   330
 C        -1.228724         0.801554         2.154691
 C         0.208937         0.991297         1.976838
 C         0.867893         2.284507         1.470867
 C         2.101049         1.461450         1.129114
 O         1.829085         0.681174        -0.057639
 C         0.991534        -0.125119         0.790664
 C         0.292500        -1.245651         0.172031
 C         1.630016         0.268114         2.075990
 O         2.169845        -0.430723         3.115946
 H        -1.717807         1.247847         2.975067
 H        -1.738507         1.225804         1.270947
 H        -1.288050        -0.337104         2.199002
 H         0.410434         2.816008         0.656513
 H         1.003608         3.116184         2.213593
 H         3.181019         1.989763         1.150213
 H        -0.501335        -1.704787         0.890764
 H        -0.177228        -0.908342        -0.675656
 H         0.940407        -2.009574        -0.198660
 H         2.112596        -1.430869         3.064628
