19
Iteration:    51charge 0 multiplicity 1
 C        -1.045084         0.892588         2.432900
 C         0.207998         1.039279         1.698723
 C         0.930307         2.310486         1.439126
 C         2.173758         1.552583         1.145348
 O         1.784994         0.710492        -0.104853
 C         0.961720        -0.077179         0.762673
 C         0.584809        -1.484875         0.244894
 C         1.547620         0.389856         2.068300
 O         1.754753        -0.628504         2.985658
 H        -0.974337         1.224340         3.514886
 H        -1.985690         1.416928         2.070150
 H        -1.215974        -0.202161         2.415832
 H         0.628816         2.996427         0.587888
 H         1.125555         2.811635         2.407821
 H         3.039047         2.166292         0.999138
 H         0.380509        -2.209100         1.028022
 H        -0.307696        -1.436444        -0.513281
 H         1.508599        -1.782837        -0.322803
 H         1.381784        -0.529442         3.916908
