19
Iteration:  2752
 C        -1.032431         0.683521         2.541858
 C         0.209592         0.981226         1.631278
 C         1.004654         2.351872         1.460102
 C         2.239768         1.368480         1.175462
 O         1.798944         0.760062        -0.095231
 C         0.896312        -0.008534         0.635481
 C         0.402831        -1.222636         0.112059
 C         1.476756         0.295037         2.035674
 O         1.860563        -0.479801         3.162514
 H        -1.819058         1.500128         2.520678
 H        -1.478997        -0.230831         2.325319
 H        -0.701821         0.575322         3.567511
 H         0.764223         3.129891         0.707387
 H         1.087121         2.755678         2.442365
 H         3.302984         1.657739         1.125581
 H        -0.055287        -1.803739         0.844483
 H        -0.292987        -0.988770        -0.699625
 H         1.226971        -1.853141        -0.185873
 H         1.596509        -1.363229         2.880529
