19
Iteration:  4667charge 0 multiplicity 1
 C        -1.087976         0.657433         2.289685
 C         0.260547         0.994005         1.777178
 C         0.938683         2.323561         1.475764
 C         2.167765         1.481560         1.122203
 O         1.755398         0.812397        -0.019011
 C         0.931641        -0.028545         0.734503
 C         0.199662        -1.320045         0.073029
 C         1.579342         0.245313         2.079448
 O         2.085445        -0.483646         3.186031
 H        -1.487242         1.159928         3.224539
 H        -1.763553         0.752399         1.417565
 H        -0.994079        -0.515474         2.599169
 H         0.435924         2.789319         0.586534
 H         0.983415         3.029421         2.433868
 H         3.221652         1.810893         1.202723
 H         0.177163        -1.313485        -1.049876
 H         0.530005        -2.266797         0.523492
 H        -0.946867        -1.198284         0.301108
 H         3.071204        -0.498375         3.183946
