19
Iteration:   927charge 0 multiplicity 1
 C        -1.156359         0.770438         2.215333
 C         0.265125         0.954590         1.853808
 C         0.883353         2.257817         1.611587
 C         2.129166         1.503262         1.208221
 O         1.794530         0.750899        -0.099670
 C         0.981175        -0.094682         0.795521
 C         0.159480        -1.162971         0.092163
 C         1.641853         0.260820         2.060287
 O         2.219462        -0.611007         3.016802
 H        -1.513718        -0.237889         1.917441
 H        -1.512299         1.049580         3.202116
 H        -1.705819         1.404529         1.534749
 H         0.401966         2.927508         0.948770
 H         1.046870         2.824155         2.575417
 H         3.182391         1.964187         1.242871
 H        -0.601840        -1.623633         0.768685
 H        -0.232374        -0.754756        -0.840968
 H         0.795795        -1.956275        -0.187063
 H         1.641433        -0.470533         3.830227
