19
Iteration:  2389
 C        -1.088674         0.790230         2.513035
 C         0.167593         1.032264         1.679486
 C         0.985933         2.339355         1.442098
 C         2.186143         1.461785         1.239360
 O         1.833522         0.764976        -0.042741
 C         0.876566        -0.074090         0.662433
 C         0.421972        -1.372538         0.154702
 C         1.534815         0.251417         1.997726
 O         1.908919        -0.554109         2.995588
 H        -0.792168         0.742420         3.540046
 H        -1.838266         1.555281         2.300271
 H        -1.617517        -0.159858         2.336194
 H         0.665194         2.985127         0.594514
 H         1.250840         2.904140         2.340286
 H         3.357100         1.811871         1.236427
 H         0.110637        -2.067770         0.937890
 H        -0.419571        -1.315951        -0.463535
 H         1.235806        -1.688133        -0.441774
 H         1.709278        -0.041766         3.809534
