19
Iteration:  1799
 C        -1.152349         0.828740         2.408598
 C         0.204272         0.990965         1.835897
 C         0.898357         2.245881         1.408064
 C         2.168810         1.465602         1.125049
 O         1.900417         0.762631        -0.057875
 C         0.860053         0.002191         0.686825
 C         0.539880        -1.361165         0.163739
 C         1.518790         0.306839         2.063007
 O         1.909584        -0.607917         3.001055
 H        -1.016969         0.627737         3.576557
 H        -1.820516         1.697348         2.398127
 H        -1.698615         0.012009         1.978526
 H         0.386020         2.984367         0.674686
 H         1.219659         2.936088         2.252703
 H         3.125507         2.002748         1.383297
 H         0.019056        -1.912066         1.070451
 H        -0.348357        -1.440515        -0.648758
 H         1.444338        -1.804669        -0.191677
 H         1.833316        -0.089668         3.821518
