19
Iteration:  1311
 C        -1.160727         0.632982         2.226573
 C         0.296511         0.952114         1.877483
 C         0.912807         2.302669         1.514529
 C         2.176318         1.424817         1.241386
 O         1.862136         0.788490        -0.011270
 C         0.937965        -0.061629         0.785973
 C         0.122251        -1.090482         0.011793
 C         1.620177         0.248415         2.064891
 O         2.077397        -0.591054         3.055761
 H        -1.290283        -0.016159         3.068960
 H        -1.671108         1.576637         2.429796
 H        -1.614439         0.097173         1.391165
 H         0.620977         2.899574         0.690424
 H         1.208112         2.810586         2.475041
 H         3.128033         1.963018         1.015765
 H        -0.763808        -1.557934         0.569222
 H        -0.073858        -0.623886        -0.950086
 H         0.745093        -1.969268        -0.173125
 H         2.377633        -0.008385         3.815392
