19
Iteration:   323
 C        -1.268525         0.788513         2.134461
 C         0.289242         0.960462         1.913459
 C         0.879632         2.332512         1.516633
 C         2.159722         1.466452         1.140431
 O         1.801608         0.655835        -0.060922
 C         0.963176        -0.067043         0.819398
 C         0.301078        -1.271550         0.195026
 C         1.626076         0.269154         2.080670
 O         2.139612        -0.432533         3.112097
 H        -1.712787         1.128965         3.151405
 H        -1.917810         1.252064         1.384858
 H        -1.494048        -0.294556         2.138742
 H         0.537100         2.730896         0.532764
 H         0.939410         3.169508         2.192353
 H         3.080485         2.018174         1.133225
 H        -0.398267        -1.749611         0.900967
 H        -0.297879        -0.906095        -0.719469
 H         1.030795        -2.092460        -0.216863
 H         2.335158        -1.325632         2.805577
