19
Iteration:  1563charge 0 multiplicity 1
 C        -1.139483         0.771746         2.455839
 C         0.184146         0.981715         1.741980
 C         0.891520         2.253430         1.492246
 C         2.182676         1.506004         1.185503
 O         1.869843         0.778044        -0.124948
 C         0.982101        -0.039924         0.701571
 C         0.498479        -1.273533         0.218836
 C         1.539566         0.304976         2.032911
 O         1.873304        -0.632374         2.982755
 H        -1.604105         1.725281         2.603927
 H        -1.780293         0.218884         1.711908
 H        -1.228760         0.152205         3.391788
 H         0.607825         2.905501         0.666309
 H         0.981790         2.945426         2.419905
 H         3.174766         2.032671         1.007959
 H        -0.286772        -1.649461         0.924708
 H        -0.068113        -1.172107        -0.647338
 H         1.370543        -1.992827         0.051473
 H         1.831942        -0.310853         3.899025
