19
Iteration:  3799charge 0 multiplicity 1
 C        -1.174815         0.834612         2.192487
 C         0.271354         0.983821         1.790492
 C         0.920344         2.300469         1.594359
 C         2.168116         1.527144         1.080114
 O         1.722759         0.813595        -0.015706
 C         0.990059        -0.049356         0.755430
 C         0.379209        -1.404420         0.219626
 C         1.520480         0.338697         2.048443
 O         2.088244        -0.676441         3.011030
 H        -1.252653         1.101945         3.202753
 H        -1.836061         1.508289         1.503037
 H        -1.551482        -0.224635         2.009111
 H         0.478126         3.008112         0.926864
 H         1.212994         2.826494         2.496345
 H         3.120848         2.008359         1.040227
 H         0.099119        -1.863438         1.169743
 H        -0.571373        -1.244628        -0.276180
 H         1.140002        -1.980482        -0.378267
 H         1.847903        -0.466509         3.915987
