19
Iteration:  4904
 C        -1.029137         0.768402         2.460370
 C         0.274809         0.891947         1.766886
 C         0.818698         2.322550         1.472921
 C         2.157743         1.465958         1.178019
 O         1.842975         0.861068        -0.011596
 C         0.936376        -0.058787         0.679470
 C         0.353855        -1.354980         0.124895
 C         1.545486         0.277223         2.010562
 O         1.896129        -0.495151         3.080334
 H        -0.991488         1.392462         3.374524
 H        -1.842022         0.978328         1.740764
 H        -1.219940        -0.278453         2.754814
 H         0.595541         2.865209         0.478498
 H         0.797404         3.036812         2.309852
 H         3.201535         1.665095         1.306339
 H         0.029693        -1.120869        -0.939449
 H         1.281598        -2.116437        -0.145857
 H        -0.480266        -1.755071         0.633480
 H         2.658252        -1.019302         2.786269
