19
Iteration:  4026charge 0 multiplicity 1
 C        -1.207366         0.723488         2.170485
 C         0.238203         0.940744         1.801088
 C         0.935542         2.230131         1.577922
 C         2.253547         1.417522         1.244200
 O         1.840904         0.798227        -0.071258
 C         0.895867         0.057712         0.806729
 C         0.245569        -1.297323         0.261345
 C         1.528719         0.352697         2.030132
 O         2.167261        -0.553903         2.920029
 H        -1.658743         1.559734         2.792754
 H        -1.903320         0.757191         1.313221
 H        -1.546748        -0.153673         2.658491
 H         0.468949         2.822265         0.712505
 H         1.099494         2.796489         2.534724
 H         3.321147         1.657555         1.246954
 H        -0.362869        -1.864107         0.956104
 H        -0.531588        -0.989492        -0.361278
 H         0.734633        -2.142309        -0.289497
 H         2.137331        -0.208241         3.858206
