19
Iteration:  2352
 C        -1.034791         0.855827         2.488292
 C         0.264572         0.914816         1.724434
 C         0.891573         2.310720         1.440215
 C         2.179180         1.610873         1.077511
 O         1.829655         0.752557        -0.094418
 C         0.933100        -0.005325         0.722879
 C         0.441027        -1.305677         0.191568
 C         1.622049         0.140487         1.957324
 O         1.787093        -0.647543         3.131088
 H        -0.858224         0.826588         3.565958
 H        -1.534902         1.874190         2.411546
 H        -1.703853        -0.015902         2.328956
 H         0.336209         2.887968         0.712702
 H         1.157288         2.835838         2.371005
 H         3.052039         2.068471         0.955537
 H         0.597477        -2.162621         0.910588
 H        -0.428502        -1.208797        -0.551772
 H         1.208299        -1.651972        -0.608774
 H         1.300156        -0.159926         3.795700
