19
Iteration:  3130charge 0 multiplicity 1
 C        -1.098398         0.726976         2.502020
 C         0.191753         1.014324         1.655406
 C         0.993198         2.344668         1.392782
 C         2.200812         1.461237         1.139225
 O         1.891295         0.734925        -0.066795
 C         0.848010        -0.016063         0.702339
 C         0.391719        -1.301558         0.182218
 C         1.562203         0.315061         2.021345
 O         1.875965        -0.525400         3.140580
 H        -0.960122         0.926358         3.494527
 H        -1.907928         1.414771         2.175722
 H        -1.554199        -0.252199         2.359735
 H         0.642370         3.121077         0.638149
 H         0.906088         2.900557         2.355331
 H         3.286481         1.863085         1.165293
 H         0.052668        -1.933808         0.960810
 H        -0.283727        -1.400052        -0.619330
 H         1.342524        -1.797300        -0.146566
 H         1.684232        -1.480747         3.000704
