19
Iteration:   985charge 0 multiplicity 1
 C        -1.103072         0.744413         2.402941
 C         0.244953         0.969771         1.761020
 C         1.001281         2.330499         1.591909
 C         2.147865         1.470208         1.185812
 O         1.811843         0.799416        -0.019029
 C         0.909492        -0.029166         0.706573
 C         0.346962        -1.194117         0.058201
 C         1.564966         0.286596         2.025582
 O         1.968653        -0.697304         2.983625
 H        -1.184118         0.130189         3.276821
 H        -1.576395         1.702681         2.677612
 H        -1.643072         0.222539         1.577454
 H         0.534276         2.853005         0.699177
 H         1.083103         2.839027         2.576632
 H         3.142885         1.800471         1.114619
 H        -0.049012        -1.804617         0.998210
 H        -0.542870        -1.154449        -0.603505
 H         1.130004        -1.702086        -0.617477
 H         1.827627        -0.219911         3.789054
