19
Iteration:  4490charge 0 multiplicity 1
 C        -1.182100         0.727345         2.314457
 C         0.148462         1.012413         1.782574
 C         0.816266         2.372643         1.485794
 C         2.139406         1.489043         1.218802
 O         1.907957         0.720321        -0.001780
 C         0.940797        -0.073453         0.757893
 C         0.356015        -1.330102         0.227855
 C         1.498904         0.335497         2.120939
 O         2.093874        -0.574903         2.837916
 H        -1.244725         1.243525         3.277294
 H        -1.820017         1.083705         1.594511
 H        -1.433169        -0.361329         2.404015
 H         0.599963         3.001717         0.666237
 H         1.223532         3.026533         2.312568
 H         3.182732         1.713070         1.381960
 H        -0.671944        -1.199899        -0.159557
 H         1.058946        -1.670426        -0.675652
 H         0.497611        -2.085747         0.959015
 H         2.519408        -0.237645         3.666798
