19
Iteration:  1034
 C        -1.008844         0.667092         2.505099
 C         0.257389         1.050697         1.799187
 C         0.945434         2.303207         1.465049
 C         2.210646         1.509236         1.294205
 O         1.880487         0.830703        -0.059435
 C         0.974239        -0.010056         0.633433
 C         0.322460        -1.227172         0.083124
 C         1.493021         0.238877         1.996157
 O         1.829834        -0.687202         2.949420
 H        -0.781020         0.861396         3.583306
 H        -1.904115         1.249888         2.374880
 H        -1.181966        -0.394695         2.424486
 H         0.546412         2.889591         0.692370
 H         1.157902         2.767424         2.425623
 H         3.192944         2.045800         1.162684
 H        -0.041296        -1.835997         0.816541
 H        -0.570533        -0.959154        -0.544244
 H         0.973818        -1.731152        -0.611281
 H         1.468297        -0.331244         3.821693
