19
Iteration:   531charge 0 multiplicity 1
 C        -1.277279         0.736859         2.116518
 C         0.222424         0.948745         1.983040
 C         0.954214         2.313008         1.475445
 C         2.162716         1.416327         1.142083
 O         1.715713         0.735978        -0.058457
 C         0.931022        -0.074137         0.838268
 C         0.343079        -1.259251         0.194888
 C         1.641319         0.236100         2.041692
 O         2.178474        -0.492033         3.050597
 H        -1.722793         0.848463         3.117374
 H        -1.570067         1.671499         1.710675
 H        -1.752242         0.054579         1.480939
 H         0.578337         2.898406         0.609714
 H         1.056004         2.991353         2.282119
 H         3.186961         1.662524         1.105076
 H        -0.275019        -1.582276         0.906113
 H        -0.332805        -0.887983        -0.517102
 H         0.943209        -2.130972        -0.190622
 H         2.414307        -0.005328         3.833379
