19
Iteration:  2543charge 0 multiplicity 1
 C        -1.010640         0.831897         2.551853
 C         0.278955         0.927730         1.744396
 C         0.954656         2.291139         1.395901
 C         2.222912         1.540302         1.225918
 O         1.758431         0.875644        -0.092377
 C         0.978901        -0.054607         0.706091
 C         0.414947        -1.323445         0.092757
 C         1.563793         0.221081         1.995191
 O         1.761762        -0.661220         3.048196
 H        -1.771671         1.495774         2.064902
 H        -1.464090        -0.180682         2.445871
 H        -0.914628         1.035879         3.660431
 H         0.620166         2.869825         0.552383
 H         0.964272         2.868256         2.313834
 H         3.405256         1.930551         1.066671
 H         0.049506        -2.070793         0.849690
 H        -0.336024        -1.028273        -0.661466
 H         1.142649        -2.003746        -0.404559
 H         1.690380        -0.315509         3.977622
