19
Iteration:  2571
 C        -1.050631         0.704230         2.549359
 C         0.257637         1.002123         1.692989
 C         0.938691         2.358670         1.466033
 C         2.193419         1.465127         1.129583
 O         1.944800         0.731965        -0.051656
 C         0.839214         0.031003         0.711040
 C         0.402213        -1.228990         0.139132
 C         1.545105         0.269595         1.975354
 O         1.803887        -0.634702         2.980630
 H        -1.954476         0.870621         1.993337
 H        -0.989500        -0.315346         3.025820
 H        -1.182248         1.385732         3.408162
 H         0.550573         3.178556         0.783883
 H         1.264273         2.859067         2.454592
 H         3.178894         1.663326         1.104499
 H         0.093766        -2.006171         0.938784
 H        -0.570342        -1.053206        -0.366564
 H         1.326594        -1.616681        -0.313913
 H         1.352513        -0.502753         3.842250
