19
Iteration:   533charge 0 multiplicity 1
 C        -1.283001         0.727125         2.120987
 C         0.231407         0.942328         1.978259
 C         0.946314         2.320434         1.460009
 C         2.169162         1.407424         1.151255
 O         1.719519         0.729055        -0.058508
 C         0.941917        -0.059698         0.827088
 C         0.337905        -1.253474         0.189900
 C         1.619168         0.236745         2.060421
 O         2.192409        -0.497408         3.050030
 H        -1.746427         0.835744         3.152175
 H        -1.562479         1.721466         1.719050
 H        -1.740317         0.042946         1.441509
 H         0.569681         2.930285         0.635731
 H         1.060413         2.961114         2.319214
 H         3.230310         1.700630         1.051940
 H        -0.283354        -1.599175         0.968415
 H        -0.382690        -0.884222        -0.605206
 H         0.891162        -2.110812        -0.134817
 H         2.382215         0.078970         3.847316
