19
Iteration:  1803charge 0 multiplicity 1
 C        -1.152135         0.834933         2.393594
 C         0.196770         0.989019         1.846955
 C         0.888719         2.264457         1.435426
 C         2.139118         1.426871         1.137396
 O         1.915867         0.766636        -0.055352
 C         0.886075        -0.026237         0.691345
 C         0.509408        -1.334468         0.168966
 C         1.489874         0.319025         2.036447
 O         1.938967        -0.603354         2.999300
 H        -0.887852         0.645994         3.430265
 H        -1.800006         1.717233         2.300948
 H        -1.754302        -0.010900         2.018695
 H         0.417256         2.890611         0.683697
 H         1.194458         2.852849         2.261489
 H         3.064389         1.925464         1.299017
 H         0.161999        -1.827223         1.051728
 H        -0.234719        -1.353566        -0.589197
 H         1.405026        -1.887360        -0.163215
 H         1.818649        -0.010752         3.784012
