19
Iteration:   710
 C        -1.209232         0.759712         2.178128
 C         0.252570         0.950623         1.864849
 C         0.909032         2.264092         1.449604
 C         2.161969         1.565093         1.088777
 O         1.818132         0.681946         0.001499
 C         0.901104        -0.063347         0.851883
 C         0.236900        -1.194362         0.208629
 C         1.659376         0.317646         2.061199
 O         2.146826        -0.603990         3.024597
 H        -1.401671         0.904485         3.251632
 H        -1.875579         1.293991         1.442132
 H        -1.428082        -0.325700         1.987815
 H         0.409188         2.872668         0.711572
 H         1.150542         2.848269         2.391763
 H         3.199401         2.035929         1.087344
 H        -0.487087        -1.795380         0.912583
 H        -0.258030        -0.907577        -0.754542
 H         0.981032        -1.870478        -0.053238
 H         1.896582        -0.259163         3.880534
