19
Iteration:   337charge 0 multiplicity 1
 C        -1.192791         0.773253         2.172672
 C         0.196570         1.055057         1.982650
 C         0.837319         2.235760         1.424848
 C         2.101229         1.477321         1.139275
 O         1.849330         0.714473        -0.047126
 C         1.030634        -0.153390         0.776434
 C         0.263112        -1.235748         0.156995
 C         1.555811         0.270304         2.062714
 O         2.226589        -0.433822         3.143658
 H        -1.625455         1.392288         3.006460
 H        -1.558294         1.030233         1.147154
 H        -1.474663        -0.248537         2.308680
 H         0.221119         2.818332         0.648796
 H         1.187726         2.782566         2.336645
 H         3.089812         1.764330         1.109236
 H        -0.489491        -1.646421         0.752938
 H        -0.267193        -0.803869        -0.785678
 H         0.972706        -2.048708        -0.092667
 H         1.796659        -1.352670         3.158808
