19
Iteration:  2952charge 0 multiplicity 1
 C        -0.985517         0.725643         2.490033
 C         0.203900         1.030522         1.699618
 C         0.957719         2.420868         1.455959
 C         2.152604         1.454907         1.156344
 O         1.892153         0.635668        -0.037175
 C         0.849906        -0.015553         0.651160
 C         0.419136        -1.301635         0.155900
 C         1.447666         0.263110         1.989968
 O         1.840836        -0.462554         3.103721
 H        -0.980162         1.187080         3.467328
 H        -1.849883         1.120076         1.889994
 H        -1.045010        -0.310476         2.731563
 H         0.500808         3.087689         0.677919
 H         1.219747         2.735702         2.506593
 H         3.209053         1.847814         1.473757
 H        -0.187622        -1.881450         0.919085
 H        -0.235890        -1.205758        -0.715079
 H         1.311950        -1.807759        -0.184193
 H         2.332306        -1.229033         2.688861
