19
Iteration:  4517
 C        -1.197781         0.739263         2.410993
 C         0.121023         0.950359         1.679338
 C         0.838847         2.322640         1.545931
 C         2.219521         1.517864         1.154253
 O         1.847929         0.801035        -0.092174
 C         0.866380         0.033003         0.695657
 C         0.481269        -1.321284         0.231051
 C         1.582629         0.248277         2.006749
 O         1.988234        -0.610727         3.018974
 H        -1.046017         1.080828         3.445803
 H        -2.102975         1.303617         1.853929
 H        -1.437237        -0.306737         2.445158
 H         0.623287         2.944533         0.614655
 H         1.072702         2.908640         2.384472
 H         3.333442         1.648684         1.238892
 H        -0.363470        -1.324218        -0.479273
 H         1.259221        -1.851137        -0.142186
 H         0.179167        -1.837210         1.229665
 H         2.710591        -0.250516         3.593544
