19
Iteration:  4591charge 0 multiplicity 1
 C        -1.112156         0.641530         2.423828
 C         0.205029         0.940341         1.772653
 C         0.901146         2.286661         1.436905
 C         2.201990         1.397902         1.250668
 O         1.853448         0.780078        -0.007021
 C         0.908043        -0.033108         0.724508
 C         0.245327        -1.254392         0.020779
 C         1.501289         0.295540         1.993352
 O         2.140832        -0.367213         3.081317
 H        -1.058234         1.071368         3.419786
 H        -1.961295         1.006566         1.933725
 H        -1.047422        -0.427800         2.580685
 H         0.512694         2.668888         0.513566
 H         0.905403         2.953569         2.298659
 H         3.166653         1.917908         1.139227
 H         0.448483        -1.271153        -1.064305
 H         0.761524        -2.138580         0.450684
 H        -0.862194        -1.388008         0.289312
 H         1.582725        -1.039322         3.488925
