19
Iteration:  2080charge 0 multiplicity 1
 C        -1.204283         0.725347         2.172182
 C         0.232833         0.899938         1.834415
 C         0.914245         2.253240         1.584953
 C         2.153401         1.406416         1.168877
 O         1.842311         0.753232        -0.071293
 C         0.947573         0.011522         0.785026
 C         0.140258        -1.125206         0.068353
 C         1.628633         0.272591         2.135611
 O         2.191975        -0.571601         3.054678
 H        -1.785124         0.428499         1.351148
 H        -1.253531        -0.144327         2.897851
 H        -1.632125         1.573097         2.710558
 H         0.461680         2.955638         0.868054
 H         1.130996         2.842390         2.524300
 H         3.301456         1.651785         1.175506
 H        -0.619317        -1.730435         0.710226
 H        -0.509876        -0.759358        -0.679643
 H         0.947571        -1.787113        -0.453487
 H         2.224484        -0.024554         3.878767
