19
Iteration:  4504
 C        -1.234264         0.736237         2.384991
 C         0.140638         1.019413         1.718837
 C         0.954301         2.302500         1.473423
 C         2.151282         1.485719         1.202737
 O         1.916151         0.765509        -0.032241
 C         0.908993         0.016325         0.734368
 C         0.420113        -1.354866         0.246708
 C         1.489554         0.338065         2.006354
 O         2.047987        -0.630221         2.943987
 H        -1.337727         1.085968         3.426473
 H        -2.166549         1.183594         1.934610
 H        -1.367722        -0.350442         2.449932
 H         0.537179         3.017802         0.772076
 H         0.887997         2.716328         2.459567
 H         3.014616         2.182370         1.147374
 H        -0.536431        -1.337740        -0.304021
 H         1.205085        -1.747167        -0.452878
 H         0.226470        -2.106815         1.073450
 H         2.702813        -0.088842         3.399332
