19
Iteration:  4631
 C        -1.147210         0.654225         2.282814
 C         0.247532         0.884213         1.800737
 C         0.850881         2.199144         1.538898
 C         2.149775         1.435899         1.082879
 O         1.830974         0.684411        -0.018895
 C         0.960783        -0.061828         0.705653
 C         0.185206        -1.093958         0.058793
 C         1.593594         0.262956         2.082892
 O         2.174428        -0.287596         3.184353
 H        -1.422977         1.302568         3.215230
 H        -2.089731         0.629396         1.582080
 H        -1.089364        -0.497183         2.646259
 H         0.434481         2.930255         0.772239
 H         1.003067         2.826200         2.576232
 H         3.191574         1.756118         1.080608
 H         0.444563        -1.025176        -0.989445
 H         0.431714        -2.215041         0.357649
 H        -0.808329        -0.934825         0.275046
 H         2.297246        -1.237708         2.921780
