19
Iteration:  3179
 C        -1.155952         0.795752         2.358924
 C         0.272791         0.946967         1.779474
 C         0.921093         2.319977         1.422059
 C         2.180599         1.499880         1.176356
 O         1.873782         0.750285        -0.111372
 C         0.855792        -0.003071         0.655524
 C         0.294018        -1.314733         0.169483
 C         1.625322         0.251035         2.054103
 O         1.952550        -0.564566         3.187698
 H        -1.299447         1.246637         3.459989
 H        -1.761938         1.218587         1.543168
 H        -1.476010        -0.244937         2.700163
 H         0.570679         2.974341         0.610810
 H         1.211973         2.897809         2.356776
 H         3.090578         2.042776         1.216023
 H        -0.611333        -1.688048         0.720097
 H        -0.076576        -1.024052        -0.865241
 H         0.925207        -2.184950         0.071677
 H         2.837161        -0.916571         3.285257
