19
Iteration:  4232charge 0 multiplicity 1
 C        -1.290232         0.742838         2.268103
 C         0.166035         0.897278         1.819864
 C         0.882659         2.350629         1.372427
 C         2.158802         1.485829         1.219521
 O         1.891609         0.756742        -0.057249
 C         1.002198        -0.090625         0.841098
 C         0.191992        -1.179397         0.213055
 C         1.596740         0.269419         2.081413
 O         2.234660        -0.609207         2.967459
 H        -1.498367         1.404287         3.079941
 H        -2.088838         0.886855         1.515179
 H        -1.408758        -0.210348         2.685563
 H         0.739168         3.058459         0.529900
 H         0.876087         2.889505         2.296234
 H         3.161413         1.800000         1.435810
 H        -0.587701        -1.639490         0.834184
 H        -0.168857        -0.817264        -0.756237
 H         1.012596        -1.923390        -0.143446
 H         2.014223        -0.284545         3.880452
