19
Iteration:  4253charge 0 multiplicity 1
 C        -1.140569         0.800356         2.137573
 C         0.245631         0.921906         1.836282
 C         0.850124         2.273853         1.514668
 C         2.183128         1.466960         1.174508
 O         1.797270         0.733296         0.015886
 C         0.894783         0.037103         0.764823
 C         0.298473        -1.231577         0.231494
 C         1.604944         0.265091         2.095514
 O         2.164537        -0.626447         2.976372
 H        -1.453648         1.406998         2.921850
 H        -1.787366         1.132280         1.305587
 H        -1.372436        -0.194801         2.370713
 H         0.248489         2.846391         0.751483
 H         0.787807         2.932894         2.421566
 H         3.075549         2.002051         0.956319
 H        -0.244244        -1.663897         1.061800
 H        -0.481497        -1.191554        -0.521904
 H         0.887718        -2.036613        -0.276706
 H         2.280467        -0.111668         3.786862
