19
Iteration:   267charge 0 multiplicity 1
 C        -1.158729         0.800987         2.478722
 C         0.228316         0.920797         1.790424
 C         0.891212         2.369119         1.478231
 C         2.220319         1.439315         1.131983
 O         1.966563         0.734321        -0.097291
 C         0.938637        -0.057846         0.638947
 C         0.388460        -1.440918         0.235258
 C         1.538118         0.366856         1.978038
 O         1.807705        -0.476292         3.004549
 H        -1.124118         0.841149         3.589147
 H        -1.791298         1.496027         1.965209
 H        -1.705941        -0.152374         2.193639
 H         0.602219         3.017141         0.671231
 H         1.050488         2.801556         2.465065
 H         3.239794         1.883056         1.322808
 H         0.172718        -2.075060         1.193683
 H        -0.532992        -1.404819        -0.313690
 H         1.222735        -2.013257        -0.319010
 H         2.475489        -0.057847         3.635860
