19
Iteration:  3918charge 0 multiplicity 1
 C        -1.090607         0.660533         2.506667
 C         0.218476         0.924113         1.665265
 C         0.966262         2.318989         1.565346
 C         2.232677         1.491624         1.157142
 O         1.804183         0.747546        -0.036565
 C         0.942501        -0.078955         0.700179
 C         0.297585        -1.267574         0.058766
 C         1.610372         0.224388         1.937124
 O         1.919906        -0.437932         3.106879
 H        -0.799874         1.011004         3.502396
 H        -1.706825         1.399481         1.912316
 H        -1.314696        -0.420742         2.410676
 H         0.659543         3.086832         0.768481
 H         0.679508         2.858230         2.555555
 H         3.179415         1.887881         0.806251
 H        -0.431007        -1.762493         0.743616
 H        -0.079924        -1.089340        -0.966668
 H         1.257395        -1.938275        -0.085534
 H         1.401879        -0.024039         3.850148
