19
Iteration:  3184charge 0 multiplicity 1
 C        -1.152529         0.791249         2.329724
 C         0.262219         0.959807         1.805141
 C         0.943373         2.300964         1.454675
 C         2.170662         1.477019         1.151903
 O         1.842767         0.747044        -0.126012
 C         0.891837        -0.010217         0.691293
 C         0.281472        -1.272838         0.152956
 C         1.619876         0.246369         2.053850
 O         1.960393        -0.565623         3.206916
 H        -1.239509         1.323473         3.229000
 H        -1.845141         1.214643         1.551349
 H        -1.374617        -0.202969         2.647921
 H         0.464172         2.794516         0.584218
 H         1.019595         2.857055         2.368589
 H         3.175500         2.016946         1.138994
 H        -0.594680        -1.581609         0.707281
 H        -0.031568        -1.018104        -0.871371
 H         1.021752        -2.144795         0.101280
 H         2.905608        -0.828197         3.287325
