19
Iteration:  2372
 C        -1.040119         0.867407         2.545978
 C         0.246299         0.941895         1.739123
 C         0.893256         2.279540         1.524153
 C         2.212006         1.452865         1.052302
 O         1.847465         0.766145        -0.133889
 C         0.973212        -0.080160         0.667166
 C         0.479366        -1.351427         0.141136
 C         1.536970         0.360611         2.059749
 O         1.783283        -0.587583         3.033071
 H        -0.921123         0.774168         3.706377
 H        -1.597055         1.799476         2.350986
 H        -1.665701        -0.000536         2.312502
 H         0.604802         2.928913         0.664137
 H         0.840557         2.660679         2.571524
 H         3.118861         1.961322         1.169450
 H         0.449362        -2.036106         0.996059
 H        -0.530156        -1.191827        -0.471127
 H         1.096715        -1.916053        -0.648194
 H         1.456476        -0.246045         3.904191
