19
Iteration:  4898
 C        -1.051335         0.739770         2.451697
 C         0.227465         0.938187         1.752249
 C         0.824913         2.341444         1.428267
 C         2.210650         1.421122         1.248907
 O         1.853934         0.869091        -0.013783
 C         0.925375        -0.036983         0.706704
 C         0.342891        -1.345173         0.089296
 C         1.550357         0.219604         1.978684
 O         1.946665        -0.451825         3.086068
 H        -1.118447         1.330196         3.370159
 H        -1.874367         0.921351         1.753131
 H        -1.238622        -0.263270         2.877971
 H         0.539991         2.753846         0.496299
 H         0.722837         2.924783         2.359197
 H         3.287028         1.800870         1.307151
 H        -0.095622        -1.124322        -0.856714
 H         1.030372        -2.069594        -0.046080
 H        -0.485696        -1.907648         0.650380
 H         2.614532        -1.124299         2.776145
