19
Iteration:  1937
 C        -1.159991         0.781223         2.537014
 C         0.225599         0.929189         1.795568
 C         0.877338         2.320590         1.479644
 C         2.228217         1.448012         1.197929
 O         1.869785         0.787002        -0.004760
 C         0.969049        -0.075111         0.601197
 C         0.376740        -1.307824         0.052242
 C         1.626871         0.303318         1.980671
 O         1.896283        -0.565591         3.007878
 H        -1.638795         1.728556         2.518261
 H        -1.797670         0.010464         1.976676
 H        -1.001193         0.413172         3.605876
 H         0.633073         2.974650         0.669977
 H         0.935173         2.936452         2.414076
 H         3.267150         1.992202         1.145433
 H        -0.073594        -1.891008         0.877480
 H        -0.432874        -1.215831        -0.587873
 H         1.217433        -1.912142        -0.487036
 H         1.468883        -0.132655         3.790166
