19
Iteration:  1444charge 0 multiplicity 1
 C        -1.135648         0.645388         2.379020
 C         0.199656         0.990202         1.630560
 C         0.916541         2.258891         1.496931
 C         2.268922         1.424866         1.270792
 O         1.910744         0.782808        -0.030393
 C         0.934132         0.048956         0.658399
 C         0.253647        -1.264614         0.130949
 C         1.533349         0.300294         2.025612
 O         1.996784        -0.565154         3.046627
 H        -2.010641         0.630201         1.741070
 H        -1.204229        -0.246105         3.023152
 H        -1.363427         1.575821         2.989481
 H         0.438966         2.958624         0.877463
 H         1.159020         2.872148         2.409377
 H         3.238958         1.932952         1.302873
 H         0.052612        -1.808011         1.063520
 H        -0.665254        -1.258818        -0.372686
 H         1.060221        -1.797967        -0.484371
 H         1.690052         0.050024         3.784619
