19
Iteration:   561charge 0 multiplicity 1
 C        -1.202579         0.716927         2.189746
 C         0.132355         0.979552         1.626250
 C         0.893042         2.299253         1.512454
 C         2.144529         1.447527         1.201219
 O         1.926945         0.692530        -0.030487
 C         0.838960        -0.038597         0.835110
 C         0.199751        -1.275249         0.209368
 C         1.676417         0.264175         2.051519
 O         2.233956        -0.472701         3.045615
 H        -1.066246         0.596292         3.235889
 H        -1.771469         1.653924         2.175966
 H        -1.788484        -0.106761         1.698679
 H         0.638593         3.073275         0.734707
 H         0.903502         2.762064         2.534799
 H         3.124213         1.832731         1.274758
 H        -0.592514        -1.616503         0.999221
 H        -0.379027        -0.849002        -0.569525
 H         0.702209        -2.271198        -0.100720
 H         2.036939        -0.076618         3.970244
