19
Iteration:   407charge 0 multiplicity 1
 C        -1.098510         0.649294         2.421466
 C         0.221233         1.020684         1.832205
 C         0.940950         2.342279         1.462519
 C         2.215662         1.465226         1.124818
 O         1.827562         0.719319        -0.086396
 C         0.988214        -0.123122         0.714953
 C         0.316982        -1.265844         0.060946
 C         1.600621         0.212181         1.947350
 O         1.860535        -0.440008         3.175085
 H        -1.621951         1.470003         2.803007
 H        -1.652969         0.108473         1.676878
 H        -0.911074        -0.070711         3.261338
 H         0.554246         3.023939         0.715658
 H         1.060694         2.876913         2.446518
 H         3.183423         2.116717         1.254355
 H        -0.458106        -1.873905         0.604650
 H        -0.104768        -0.845093        -0.751075
 H         1.077264        -1.917031        -0.269106
 H         2.195993         0.271596         3.775915
