19
Iteration:  3107charge 0 multiplicity 1
 C        -1.038563         0.799506         2.409513
 C         0.266495         1.033434         1.853856
 C         0.957592         2.277229         1.444940
 C         2.169292         1.479745         1.169434
 O         1.773393         0.740118        -0.122827
 C         0.991956        -0.084605         0.728065
 C         0.384797        -1.340222         0.107575
 C         1.549434         0.290809         2.037885
 O         1.850270        -0.469889         3.166982
 H        -1.233774         0.943515         3.432751
 H        -1.795070         1.423731         1.827459
 H        -1.361542        -0.196546         2.085218
 H         0.521497         2.920970         0.573259
 H         1.084824         3.057892         2.248380
 H         3.262069         1.853354         1.068563
 H         0.033954        -2.035194         0.861315
 H        -0.451845        -1.181710        -0.605818
 H         1.176649        -1.929222        -0.458567
 H         1.966641        -1.401098         2.964019
