19
Iteration:   297
 C        -1.172531         0.821417         2.247068
 C         0.177134         0.943348         1.634105
 C         0.938255         2.301729         1.433968
 C         2.124740         1.377961         1.174012
 O         1.840333         0.766890        -0.037140
 C         0.886829        -0.012347         0.754281
 C         0.347431        -1.307767         0.288556
 C         1.543915         0.303562         2.079634
 O         2.066277        -0.507445         3.098179
 H        -1.215304         0.744580         3.306310
 H        -2.037638         1.357144         1.824105
 H        -1.440412        -0.270179         1.974156
 H         0.843721         3.064403         0.698588
 H         1.034830         2.679926         2.473405
 H         3.127981         1.986255         1.383214
 H        -0.090232        -1.876859         1.223784
 H        -0.446923        -1.200948        -0.395583
 H         1.119600        -1.946593        -0.092976
 H         3.002681        -0.577261         2.997585
