19
Iteration:  1698charge 0 multiplicity 1
 C        -1.145308         0.646662         2.184649
 C         0.248574         0.939909         1.739127
 C         0.863292         2.297040         1.452256
 C         2.161214         1.458651         1.179468
 O         1.833601         0.675778         0.014451
 C         0.895795        -0.094672         0.785104
 C         0.222828        -1.197434         0.063527
 C         1.652467         0.297328         2.075700
 O         2.156672        -0.442164         3.196511
 H        -1.257784         0.382073         3.292306
 H        -1.692865         1.606034         2.183418
 H        -1.634139        -0.163748         1.606490
 H         0.274238         2.824180         0.704955
 H         1.088937         2.989937         2.371269
 H         3.134962         1.866704         1.018178
 H        -0.565201        -1.672670         0.602680
 H        -0.309768        -0.704991        -0.767634
 H         1.052282        -1.908443        -0.351373
 H         1.846989         0.109687         3.922977
