19
Iteration:  3896charge 0 multiplicity 1
 C        -1.077406         0.708953         2.381792
 C         0.264599         0.925053         1.788177
 C         0.921049         2.223381         1.458821
 C         2.136586         1.483125         1.147163
 O         1.821717         0.849387        -0.136603
 C         0.930401        -0.044252         0.727934
 C         0.305065        -1.278803         0.099933
 C         1.567565         0.253197         2.051790
 O         2.011772        -0.512362         3.158827
 H        -1.003983         0.681074         3.499038
 H        -1.571793         1.646817         1.949267
 H        -1.475367        -0.258460         1.959803
 H         0.269714         2.803332         0.736620
 H         1.237775         2.876568         2.355127
 H         3.173945         1.734441         1.262844
 H        -0.478690        -1.652637         0.828708
 H        -0.212038        -0.990373        -0.826153
 H         1.042087        -2.130071        -0.238645
 H         1.669247        -0.107914         3.957965
