19
Iteration:  2204
 C        -1.143580         0.731885         2.452024
 C         0.142257         0.908113         1.685587
 C         0.994087         2.301698         1.533744
 C         2.226249         1.412001         1.235808
 O         1.868278         0.814544        -0.113159
 C         0.894788        -0.023825         0.647213
 C         0.334343        -1.295309         0.194657
 C         1.529359         0.350246         2.059085
 O         2.005383        -0.559684         2.959952
 H        -1.608859         1.728597         2.500095
 H        -1.779069         0.068931         1.865927
 H        -1.109551         0.378742         3.496263
 H         0.737755         2.977787         0.682044
 H         0.934666         2.756914         2.564568
 H         3.236840         1.750639         1.432761
 H        -0.432191        -1.790480         0.920172
 H        -0.190823        -0.966276        -0.849740
 H         1.065906        -2.066666        -0.080326
 H         1.996929        -0.291439         3.920191
