19
Iteration:  3780
 C        -1.152179         0.778616         2.290429
 C         0.254201         0.943486         1.807052
 C         0.966765         2.327695         1.563446
 C         2.159450         1.470486         1.162895
 O         1.783723         0.758620        -0.153063
 C         0.856670         0.036964         0.802192
 C         0.445550        -1.287896         0.255668
 C         1.599920         0.249659         1.967509
 O         2.016668        -0.604666         3.025978
 H        -1.507434         1.280000         3.190756
 H        -1.896407         1.102102         1.564293
 H        -1.506535        -0.283121         2.501683
 H         0.399598         3.029607         0.736108
 H         1.057112         2.893763         2.510664
 H         3.174188         1.836323         1.072391
 H         0.058732        -1.947771         0.983880
 H        -0.367974        -1.217881        -0.546198
 H         1.316193        -1.659059        -0.267925
 H         1.465514        -0.484663         3.802258
