19
Iteration:  3845
 C        -1.289515         0.763820         2.234477
 C         0.231470         0.961378         1.766052
 C         0.883580         2.299386         1.488863
 C         2.141125         1.405995         1.210391
 O         1.927412         0.764551         0.005905
 C         0.939183         0.019340         0.797117
 C         0.276052        -1.300722         0.226415
 C         1.430861         0.277504         2.133057
 O         2.206269        -0.576889         2.909028
 H        -1.088937         0.582022         3.241980
 H        -1.778815         1.680344         1.902317
 H        -1.582425        -0.092192         1.546856
 H         0.607112         2.939274         0.646974
 H         0.967616         2.978629         2.305133
 H         3.168072         1.797504         1.142540
 H        -0.102897        -1.821627         1.053633
 H        -0.668995        -1.026543        -0.368556
 H         0.994883        -1.884803        -0.314663
 H         2.554938        -0.038388         3.639126
