19
Iteration:  3846
 C        -1.287385         0.762623         2.232017
 C         0.232479         0.971602         1.766850
 C         0.881005         2.307657         1.489044
 C         2.140443         1.410870         1.212976
 O         1.930304         0.762050         0.007290
 C         0.941764         0.003228         0.804393
 C         0.268305        -1.308307         0.222840
 C         1.434292         0.280885         2.125917
 O         2.206332        -0.577638         2.907499
 H        -1.112523         0.554069         3.279604
 H        -1.773179         1.650690         1.923107
 H        -1.584602        -0.088258         1.572749
 H         0.627931         2.989420         0.600196
 H         0.971264         2.987406         2.325994
 H         3.170469         1.826418         1.156811
 H        -0.131296        -1.847103         1.028793
 H        -0.657859        -1.035215        -0.403733
 H         0.982154        -1.854934        -0.316472
 H         2.553379        -0.038831         3.658412
