19
Iteration:  4166
 C        -1.058480         0.645909         2.465255
 C         0.315664         0.916240         1.767402
 C         1.055338         2.205215         1.453085
 C         2.232353         1.538178         1.107321
 O         1.780644         0.796856        -0.119632
 C         0.913169        -0.031392         0.737693
 C         0.250531        -1.296326        -0.001702
 C         1.614724         0.309727         2.078603
 O         1.823777        -0.460296         3.172350
 H        -1.008040         1.173584         3.384947
 H        -2.003531         0.802508         1.886633
 H        -0.957328        -0.377888         2.757781
 H         0.572886         2.876506         0.759557
 H         0.989926         2.550427         2.425791
 H         3.079168         2.068300         0.734564
 H        -0.516015        -1.744262         0.659482
 H        -0.043410        -0.996029        -1.024345
 H         1.179493        -1.975424        -0.009225
 H         1.711661         0.031104         3.996768
