19
Iteration:  2295
 C        -1.160586         0.676762         2.298407
 C         0.201317         0.994645         1.721396
 C         0.939562         2.264689         1.511059
 C         2.218816         1.425533         1.173974
 O         1.929111         0.685499        -0.001289
 C         0.848348         0.027123         0.645278
 C         0.190784        -1.216087         0.151606
 C         1.531588         0.323533         2.121570
 O         2.124336        -0.529244         3.034492
 H        -1.201627         1.086006         3.374229
 H        -1.991856         0.989607         1.678251
 H        -1.307435        -0.403029         2.347825
 H         0.525907         2.946815         0.708395
 H         1.141358         2.830835         2.453715
 H         3.169101         1.983929         1.258806
 H        -0.358368        -1.665843         0.986756
 H        -0.750253        -1.088301        -0.620323
 H         0.954464        -1.979509        -0.273636
 H         2.291157         0.084090         3.781418
