19
Iteration:   388charge 0 multiplicity 1
 C        -1.114539         0.635676         2.342369
 C         0.207661         0.917088         1.679699
 C         0.930984         2.292259         1.516083
 C         2.169215         1.379622         1.211119
 O         1.872275         0.713454        -0.064532
 C         0.906642        -0.030054         0.683677
 C         0.263766        -1.233888         0.005764
 C         1.494247         0.316616         2.097740
 O         2.082875        -0.379658         3.161338
 H        -1.457475         1.668214         2.716252
 H        -1.897422         0.172778         1.738523
 H        -0.970998        -0.009843         3.225216
 H         0.611773         2.903977         0.678936
 H         1.077046         2.819077         2.433655
 H         3.241557         1.678072         1.178944
 H        -0.440124        -1.563250         0.741295
 H        -0.293603        -1.019674        -0.946722
 H         0.988967        -2.143339        -0.053937
 H         2.122647         0.068613         4.008453
