19
Iteration:  2778
 C        -1.070240         0.744070         2.491438
 C         0.250526         1.009501         1.706661
 C         0.961904         2.314720         1.451719
 C         2.239436         1.413880         1.264222
 O         1.869347         0.730442        -0.038307
 C         0.837039        -0.059357         0.685693
 C         0.291797        -1.288944         0.002486
 C         1.549205         0.275699         1.977869
 O         1.862263        -0.437340         3.127782
 H        -1.645423         1.574779         2.881659
 H        -1.679592        -0.059671         1.965859
 H        -0.823928         0.144828         3.389785
 H         0.722256         2.983500         0.660438
 H         1.023225         2.916106         2.385477
 H         3.370384         1.936050         1.238929
 H        -0.145389        -1.854806         0.890379
 H        -0.478159        -1.151348        -0.725654
 H         1.109343        -1.950427        -0.274225
 H         2.674631        -0.894334         2.904360
