19
Iteration:  4247
 C        -1.158656         0.776177         2.181242
 C         0.225120         0.989995         1.769088
 C         0.855476         2.235140         1.524030
 C         2.135145         1.470128         1.218676
 O         1.811134         0.723848        -0.040969
 C         0.954323        -0.000279         0.767022
 C         0.296784        -1.197608         0.221815
 C         1.559717         0.288480         2.129095
 O         2.208113        -0.632695         2.983387
 H        -1.515320         1.548510         2.987248
 H        -1.779619         1.090755         1.321725
 H        -1.408879        -0.293901         2.460626
 H         0.280443         2.630814         0.678546
 H         0.932092         3.046730         2.255883
 H         3.096962         2.028145         1.052153
 H        -0.381094        -1.611014         1.016076
 H        -0.465157        -0.972646        -0.587165
 H         0.810282        -2.134915        -0.183752
 H         2.276901        -0.298975         3.898774
