19
Iteration:  3064
 C        -1.163453         0.785897         2.261475
 C         0.242512         0.932111         1.705220
 C         0.913736         2.251907         1.463633
 C         2.206781         1.390141         1.240595
 O         1.916988         0.711909        -0.020792
 C         0.869539        -0.046075         0.704088
 C         0.123035        -1.253628         0.098856
 C         1.551578         0.282174         2.053484
 O         2.098030        -0.457662         3.175970
 H        -1.287142         1.307757         3.131221
 H        -1.976888         0.998164         1.520781
 H        -1.309430        -0.237368         2.619872
 H         0.755029         3.041399         0.638247
 H         0.971668         2.752072         2.485851
 H         3.218975         2.010333         1.451812
 H        -0.266153        -1.806041         0.900736
 H        -0.616772        -0.978157        -0.589940
 H         0.882188        -1.894808        -0.366341
 H         3.022006        -0.133031         3.110277
