19
Iteration:  3694charge 0 multiplicity 1
 C        -1.089025         0.559455         2.447372
 C         0.292766         1.029732         1.872865
 C         0.877402         2.396844         1.426614
 C         2.190979         1.365551         1.169809
 O         1.828188         0.751958        -0.109296
 C         1.025414        -0.160050         0.705827
 C         0.237419        -1.110542        -0.023962
 C         1.574894         0.212489         2.036986
 O         1.950499        -0.473691         3.190305
 H        -1.516844         1.515156         3.007558
 H        -1.795310         0.310929         1.689418
 H        -0.771952        -0.228457         3.189540
 H         0.433802         2.723857         0.444501
 H         1.046075         3.174963         2.122240
 H         3.227368         1.742747         1.169196
 H        -0.635695        -1.393276         0.535305
 H         0.171731        -0.669713        -1.134401
 H         0.811286        -2.048182        -0.172480
 H         1.811658         0.135469         3.940094
