19
Iteration:  4552
 C        -1.108122         0.702343         2.430471
 C         0.242767         0.997431         1.760750
 C         0.885460         2.314843         1.542858
 C         2.202604         1.586551         1.057503
 O         1.752889         0.798876        -0.060699
 C         0.930672        -0.064675         0.749701
 C         0.425185        -1.390009         0.097806
 C         1.654784         0.261583         2.050412
 O         1.942987        -0.571501         3.044034
 H        -1.190123         1.027146         3.503281
 H        -1.970792         1.332182         1.926136
 H        -1.499071        -0.340598         2.414387
 H         0.400629         3.003640         0.754412
 H         1.103409         2.943326         2.443888
 H         3.175429         2.116532         0.919411
 H         0.178010        -1.324687        -0.970858
 H         1.203293        -2.120946         0.231394
 H        -0.510893        -1.785769         0.548889
 H         1.735041        -0.144958         3.927099
