19
Iteration:  4537charge 0 multiplicity 1
 C        -1.037525         0.764265         2.390286
 C         0.243838         0.917188         1.821520
 C         0.916860         2.272043         1.496534
 C         2.131828         1.508843         1.159882
 O         1.738117         0.866878        -0.118483
 C         0.926140        -0.051670         0.663034
 C         0.481639        -1.361312         0.210407
 C         1.555424         0.287251         2.030236
 O         1.896944        -0.591876         3.041021
 H        -0.991342         1.027715         3.440814
 H        -1.743064         1.308622         1.771422
 H        -1.357303        -0.258156         2.264197
 H         0.447238         2.924538         0.764642
 H         0.871912         2.763122         2.427281
 H         3.123059         2.010805         1.111449
 H         0.046006        -1.095869        -0.770638
 H         1.305960        -2.080048         0.062016
 H        -0.258701        -1.831562         0.964501
 H         2.327008         0.032232         3.645539
