19
Iteration:  3010
 C        -1.145296         0.715068         2.237583
 C         0.321258         0.932064         1.746966
 C         0.917447         2.292078         1.553651
 C         2.167587         1.483276         1.073696
 O         1.881299         0.650702        -0.015836
 C         0.871283        -0.062315         0.764284
 C         0.120834        -1.149473         0.072772
 C         1.656195         0.258174         2.077747
 O         2.068424        -0.432779         3.259540
 H        -1.654313         1.521494         2.642569
 H        -1.754166         0.371060         1.397461
 H        -1.264001        -0.179277         2.848904
 H         0.476569         2.787632         0.757794
 H         0.950840         3.039008         2.277119
 H         3.203234         2.040492         1.057929
 H        -0.627938        -1.600856         0.621140
 H        -0.273257        -0.769427        -0.778010
 H         0.815034        -1.915776        -0.213031
 H         2.584838        -1.162991         2.893177
