19
Iteration:  2077
 C        -1.181449         0.735213         2.179008
 C         0.225080         0.932565         1.867866
 C         0.895215         2.265629         1.572628
 C         2.154380         1.395361         1.157022
 O         1.848202         0.762068        -0.070266
 C         0.934916         0.004173         0.798788
 C         0.134190        -1.129643         0.073059
 C         1.636404         0.260741         2.107886
 O         2.204776        -0.591714         3.066497
 H        -1.743419         0.293091         1.228687
 H        -1.280523        -0.163739         2.807919
 H        -1.702427         1.588280         2.660223
 H         0.425901         2.941187         0.793632
 H         1.117531         2.809475         2.535663
 H         3.288054         1.726797         1.287875
 H        -0.573570        -1.731297         0.682196
 H        -0.492995        -0.652264        -0.722359
 H         0.900727        -1.873485        -0.435014
 H         2.196143         0.005976         3.859051
