19
Iteration:  2185charge 0 multiplicity 1
 C        -1.079043         0.759825         2.472385
 C         0.253639         1.000731         1.754612
 C         0.881210         2.329773         1.480790
 C         2.189614         1.476848         1.161118
 O         1.908040         0.828338        -0.063208
 C         0.892234         0.004659         0.675332
 C         0.363793        -1.267043         0.182027
 C         1.577217         0.181201         1.957741
 O         1.844716        -0.664797         2.994221
 H        -1.736388         1.704310         2.719132
 H        -1.644363        -0.056141         2.064041
 H        -0.763103         0.490729         3.490426
 H         0.488470         2.853906         0.581410
 H         1.064332         2.832874         2.435470
 H         3.198645         2.012095         1.318548
 H         0.085317        -1.823859         1.035212
 H        -0.274876        -1.309137        -0.759262
 H         1.204283        -1.975332         0.043227
 H         1.943026         0.061104         3.665843
