19
Iteration:  4878
 C        -1.177917         0.658832         2.406226
 C         0.159788         0.904119         1.692868
 C         0.930684         2.257909         1.476625
 C         2.133542         1.487730         1.220134
 O         1.880441         0.718471        -0.063005
 C         0.901917         0.022031         0.667333
 C         0.291765        -1.195805         0.073344
 C         1.545856         0.293634         2.065433
 O         2.106387        -0.423025         3.166825
 H        -1.220285         1.323880         3.337269
 H        -2.106921         0.596797         1.732051
 H        -1.094526        -0.361185         2.842484
 H         0.800665         2.920317         0.501290
 H         1.078870         2.907256         2.378524
 H         3.225261         1.801562         1.422722
 H        -0.319981        -0.985175        -0.811067
 H         1.039602        -1.827782        -0.234746
 H        -0.413816        -1.690292         0.844955
 H         2.352696        -1.302907         2.815169
