19
Iteration:  1519charge 0 multiplicity 1
 C        -1.205827         0.736722         2.288647
 C         0.224662         0.917686         1.685891
 C         0.895415         2.278446         1.464278
 C         2.174821         1.426415         1.253295
 O         1.811943         0.692721        -0.006364
 C         0.962148        -0.052023         0.747661
 C         0.284509        -1.190104         0.026736
 C         1.556143         0.270577         2.096532
 O         2.164253        -0.452983         3.079296
 H        -1.872585         1.558619         2.366687
 H        -1.701664        -0.139819         1.827229
 H        -1.160966         0.290609         3.332198
 H         0.689870         3.070727         0.712936
 H         0.863919         2.699331         2.526498
 H         3.245860         1.625353         1.562819
 H        -0.605447        -1.525887         0.655256
 H        -0.134750        -0.797261        -0.871952
 H         0.895409        -2.105556        -0.199079
 H         2.024764         0.075979         3.870152
