19
Iteration:  1884
 C        -1.203889         0.592276         2.164927
 C         0.255405         0.941554         1.880385
 C         0.964742         2.333355         1.506535
 C         2.227805         1.456215         1.104551
 O         1.814149         0.753320        -0.000282
 C         0.984314        -0.110238         0.833154
 C         0.176560        -1.146339         0.109652
 C         1.547493         0.327233         2.086802
 O         2.123054        -0.547810         3.072280
 H        -1.881483         1.376288         2.539914
 H        -1.697526         0.394174         1.124883
 H        -1.128804        -0.257225         2.899892
 H         0.484902         2.829308         0.673170
 H         1.197399         3.012361         2.378056
 H         3.214064         2.045768         1.065393
 H        -0.563500        -1.726493         0.746320
 H        -0.462304        -0.619076        -0.618555
 H         0.823616        -1.907994        -0.310794
 H         2.155379         0.072801         3.834014
