19
Iteration:  2763charge 0 multiplicity 1
 C        -1.009817         0.649512         2.537598
 C         0.124399         1.008822         1.602356
 C         1.075049         2.351671         1.455833
 C         2.174895         1.378919         1.198480
 O         1.844118         0.801765        -0.074017
 C         0.903355        -0.014515         0.729487
 C         0.353953        -1.306576         0.127382
 C         1.460605         0.282632         1.982009
 O         1.868214        -0.458363         3.140841
 H        -1.602583         1.620350         2.560617
 H        -1.674932        -0.065155         2.180582
 H        -0.703170         0.451098         3.552232
 H         0.865216         3.022396         0.587229
 H         1.148913         2.920150         2.346725
 H         3.226576         1.571331         1.376261
 H        -0.263193        -1.952677         0.625727
 H        -0.267687        -0.953016        -0.717232
 H         1.164810        -1.710042        -0.452414
 H         2.268085        -1.353908         2.984599
