19
Iteration:  2994charge 0 multiplicity 1
 C        -1.073499         0.697994         2.286264
 C         0.270400         0.950578         1.753927
 C         0.912530         2.262984         1.431174
 C         2.200334         1.465996         1.208210
 O         1.780218         0.718833        -0.083806
 C         0.995138        -0.058377         0.780294
 C         0.223958        -1.183590         0.087097
 C         1.600022         0.224972         2.050490
 O         1.999971        -0.411837         3.211714
 H        -1.318810         1.640909         2.909137
 H        -1.857381         0.499791         1.503823
 H        -1.073460        -0.093090         3.066612
 H         0.499096         3.006546         0.568084
 H         1.028797         2.750199         2.489176
 H         3.189767         1.855946         1.024796
 H        -0.568802        -1.529739         0.862050
 H        -0.291257        -0.669826        -0.848589
 H         0.854577        -2.054802        -0.231779
 H         2.068942        -1.397771         3.156677
