19
Iteration:  2898
 C        -1.054737         0.881040         2.316765
 C         0.299435         0.950713         1.777279
 C         0.848229         2.254943         1.506345
 C         2.191852         1.425461         1.150408
 O         1.825587         0.777009        -0.124428
 C         0.946715         0.000204         0.716143
 C         0.334745        -1.349281         0.141852
 C         1.551599         0.275220         2.036948
 O         1.919724        -0.524366         3.181470
 H        -0.966407         0.822726         3.378985
 H        -1.710594         1.742831         2.021250
 H        -1.594647         0.001698         1.992118
 H         0.225992         2.711244         0.780748
 H         0.775468         2.953673         2.361329
 H         3.238059         2.009594         1.299355
 H        -0.111443        -1.829441         1.035519
 H        -0.343212        -1.229390        -0.623590
 H         1.101677        -2.011233        -0.165513
 H         2.601794        -1.227161         2.969305
