19
Iteration:  2168charge 0 multiplicity 1
 C        -0.978951         0.720182         2.523235
 C         0.258451         0.990459         1.736163
 C         0.910265         2.329266         1.460893
 C         2.196263         1.569526         1.140066
 O         1.831346         0.777370        -0.105696
 C         0.928564         0.017924         0.712914
 C         0.446186        -1.297825         0.130096
 C         1.528470         0.331303         2.075481
 O         1.777450        -0.716174         3.006196
 H        -1.563022         1.567439         2.339791
 H        -1.640653        -0.073838         2.055343
 H        -0.894632         0.581515         3.629016
 H         0.575056         2.921166         0.598122
 H         1.092039         2.892510         2.403695
 H         3.190045         1.865517         0.873845
 H        -0.017976        -1.924645         1.008261
 H        -0.375300        -1.075310        -0.549331
 H         1.189781        -1.968663        -0.388509
 H         1.785778        -0.454031         3.977992
