19
Iteration:  4626charge 0 multiplicity 1
 C        -1.142920         0.652561         2.278683
 C         0.203347         0.922032         1.779032
 C         0.848677         2.208839         1.542574
 C         2.165683         1.456338         1.164354
 O         1.855495         0.705057        -0.053028
 C         0.946920        -0.119867         0.684243
 C         0.173757        -1.123862         0.060098
 C         1.579858         0.257566         2.096220
 O         2.205962        -0.289484         3.193219
 H        -1.249941         1.187672         3.180051
 H        -2.071891         0.616974         1.768753
 H        -1.031766        -0.295412         2.668895
 H         0.485902         2.889961         0.794341
 H         0.969374         2.736261         2.400741
 H         3.192399         1.825672         1.001820
 H         0.339589        -1.074408        -1.038198
 H         0.453504        -2.079342         0.344672
 H        -0.981020        -1.017092         0.124105
 H         2.173675        -1.231177         2.967515
