19
Iteration:  2675charge 0 multiplicity 1
 C        -1.269715         0.781682         2.248085
 C         0.254960         0.982561         1.824207
 C         0.943564         2.330291         1.579454
 C         2.203650         1.368080         1.262880
 O         1.887490         0.714746         0.026722
 C         0.842667        -0.032012         0.715062
 C         0.158945        -1.220342         0.055132
 C         1.499944         0.269078         2.081174
 O         2.310626        -0.526349         2.940076
 H        -1.861509         0.431797         1.345145
 H        -1.498870         0.053244         2.972945
 H        -1.660783         1.751822         2.559109
 H         0.596991         2.897660         0.715592
 H         1.145113         2.952087         2.421566
 H         3.264421         1.559009         1.589527
 H        -0.545955        -1.489795         0.802566
 H        -0.343417        -1.025048        -0.905056
 H         0.898854        -1.975386        -0.238012
 H         1.799602        -0.680077         3.785654
