19
Iteration:  2328charge 0 multiplicity 1
 C        -1.053832         0.758506         2.417878
 C         0.230983         0.997361         1.753584
 C         0.949840         2.312293         1.430116
 C         2.225025         1.470833         1.192413
 O         1.766744         0.753987        -0.112692
 C         0.939788        -0.005525         0.740941
 C         0.382088        -1.334650         0.108104
 C         1.595100         0.371125         2.090519
 O         1.869831        -0.611906         3.072038
 H        -0.986546         0.680988         3.573273
 H        -1.787560         1.539593         2.224168
 H        -1.388898        -0.245179         2.150215
 H         0.493059         2.804528         0.530481
 H         1.173206         2.942838         2.334584
 H         3.256022         1.839728         1.024127
 H         0.324288        -2.038226         0.941105
 H        -0.600205        -1.130111        -0.580972
 H         1.037201        -1.944957        -0.638050
 H         1.620984        -0.318348         3.994933
