19
Iteration:   598charge 0 multiplicity 1
 C        -1.071585         0.719042         2.434223
 C         0.247724         1.002794         1.872160
 C         0.835754         2.285579         1.376161
 C         2.176156         1.382762         1.132102
 O         1.940303         0.744474        -0.125240
 C         0.944398        -0.022683         0.710865
 C         0.348863        -1.277640         0.147638
 C         1.566674         0.305182         2.012382
 O         1.919982        -0.545992         3.118559
 H        -1.012424         0.405846         3.508656
 H        -1.675596         1.622748         2.429056
 H        -1.736110         0.118286         1.874933
 H         0.428436         2.803595         0.486436
 H         1.055429         3.062614         2.103878
 H         3.090933         2.048203         1.219182
 H        -0.240159        -1.645826         0.900728
 H        -0.385149        -1.036810        -0.652933
 H         1.055125        -2.087519        -0.182862
 H         1.643588         0.028645         3.899789
