19
Iteration:  1577
 C        -1.092993         0.722030         2.350132
 C         0.235165         0.983094         1.764390
 C         0.946161         2.357861         1.409923
 C         2.181593         1.545934         1.087786
 O         1.770690         0.808628        -0.055009
 C         0.968931         0.030948         0.801669
 C         0.515833        -1.327660         0.254703
 C         1.527613         0.299037         2.085704
 O         1.822796        -0.727356         2.969973
 H        -1.495552         1.690864         2.770508
 H        -1.957239         0.312358         1.753681
 H        -0.710561         0.137684         3.265128
 H         0.435685         2.918305         0.612925
 H         1.157251         3.063542         2.406645
 H         3.166086         1.948842         1.151703
 H        -0.031780        -1.928178         0.928511
 H        -0.004838        -1.209073        -0.716326
 H         1.513420        -1.954288        -0.037140
 H         1.594433        -0.376114         3.875442
