19
Iteration:  1878charge 0 multiplicity 1
 C        -1.219993         0.604551         2.131679
 C         0.255032         0.984567         1.928216
 C         0.957128         2.302489         1.519990
 C         2.178664         1.446692         1.139953
 O         1.804503         0.738776        -0.052018
 C         1.008068        -0.101551         0.808928
 C         0.165729        -1.144436         0.132264
 C         1.601674         0.317005         2.109268
 O         2.122146        -0.530271         3.071607
 H        -1.777528         1.367550         2.745982
 H        -1.666892         0.300449         1.238143
 H        -1.350759        -0.325772         2.678632
 H         0.640048         2.852897         0.555534
 H         1.217265         2.995815         2.309870
 H         3.091050         1.961275         1.060379
 H        -0.483230        -1.702648         0.812353
 H        -0.299103        -0.575422        -0.759880
 H         0.847716        -1.853367        -0.372886
 H         2.163720        -0.030256         3.891658
