19
Iteration:  4012
 C        -1.246699         0.755473         2.279865
 C         0.220248         0.946565         1.832415
 C         0.923198         2.283605         1.521486
 C         2.201045         1.513722         1.181135
 O         1.913928         0.785061        -0.044622
 C         0.921692        -0.061798         0.717608
 C         0.181265        -1.272713         0.186282
 C         1.649856         0.276623         2.064590
 O         2.108580        -0.597995         2.965263
 H        -1.673374         1.647198         2.854212
 H        -1.863951         0.560903         1.314839
 H        -1.338266        -0.218898         2.910040
 H         0.568376         2.941712         0.713322
 H         0.962709         2.892886         2.365093
 H         3.188971         2.065140         1.200297
 H        -0.281870        -1.748094         1.095594
 H        -0.575308        -1.063076        -0.619330
 H         1.007284        -1.890553        -0.106880
 H         2.006440        -0.239616         3.847317
