19
Iteration:   158
 C        -1.205732         0.639513         2.151682
 C         0.267878         0.916764         1.805617
 C         0.958800         2.268294         1.466889
 C         2.218742         1.413407         1.239352
 O         1.790029         0.712363        -0.002570
 C         0.889141        -0.107296         0.734749
 C         0.129984        -1.212484         0.081916
 C         1.618128         0.283307         2.056510
 O         2.244674        -0.334704         3.156905
 H        -1.588799         1.452076         2.818764
 H        -1.688480         0.567059         1.197062
 H        -1.381252        -0.265032         2.794223
 H         0.675455         2.911781         0.577102
 H         0.999720         3.017298         2.314268
 H         3.251951         1.801304         1.283688
 H        -0.802014        -1.421052         0.685817
 H        -0.227292        -0.870598        -0.852152
 H         0.665450        -2.170895         0.068936
 H         1.588874        -0.240176         3.916596
