19
Iteration:  4165
 C        -1.051132         0.646874         2.467445
 C         0.329254         0.917232         1.767263
 C         1.054213         2.203633         1.440786
 C         2.226469         1.532273         1.108525
 O         1.786035         0.801082        -0.127161
 C         0.904347        -0.027171         0.737672
 C         0.255891        -1.306559         0.004806
 C         1.604150         0.308710         2.082042
 O         1.823042        -0.460942         3.174689
 H        -1.041035         1.156708         3.366479
 H        -2.001688         0.836125         1.927098
 H        -0.949598        -0.397156         2.750873
 H         0.544506         2.909757         0.781604
 H         0.992869         2.546247         2.479795
 H         3.083129         2.082420         0.746095
 H        -0.518341        -1.715610         0.686321
 H        -0.028058        -0.981166        -1.039344
 H         1.171134        -1.944819        -0.054306
 H         1.679264         0.009133         3.999190
