19
Iteration:  1661
 C        -1.175615         0.717448         2.227693
 C         0.160821         0.900400         1.780659
 C         0.836768         2.268350         1.453060
 C         2.174528         1.389036         1.179276
 O         1.844441         0.718144         0.013658
 C         0.986699        -0.054468         0.760547
 C         0.259236        -1.220295         0.088358
 C         1.583661         0.319205         2.100063
 O         2.198612        -0.455946         3.126516
 H        -1.264579         0.639280         3.283858
 H        -1.695304         1.573573         1.730644
 H        -1.802377        -0.099350         1.721622
 H         0.381260         2.900866         0.592677
 H         1.009892         2.946923         2.303497
 H         3.188168         1.877865         1.285584
 H        -0.255156        -1.974094         0.758095
 H        -0.492737        -0.825969        -0.596519
 H         0.943069        -1.876612        -0.614527
 H         1.954690         0.043932         3.933310
