19
Iteration:  4415
 C        -1.143384         0.581750         2.294449
 C         0.263771         0.948697         1.775661
 C         0.993150         2.260296         1.603442
 C         2.174786         1.382360         1.137136
 O         1.859962         0.744743        -0.045822
 C         0.843076        -0.000136         0.681068
 C         0.225763        -1.281863         0.064904
 C         1.566625         0.271058         2.044994
 O         2.101970        -0.316590         3.101443
 H        -1.374136         1.412526         3.014848
 H        -1.955784         0.720426         1.465441
 H        -1.245095        -0.500337         2.714721
 H         0.616049         3.113010         1.004378
 H         1.121918         2.668114         2.653220
 H         3.200258         1.685541         1.246242
 H        -0.834197        -1.379093         0.390301
 H         0.216748        -1.077941        -1.141862
 H         0.747452        -2.165540         0.368331
 H         1.597302        -0.027616         3.881771
