19
Iteration:  4070charge 0 multiplicity 1
 C        -1.273938         0.818315         2.142740
 C         0.247096         0.918384         1.863493
 C         0.887197         2.310989         1.548635
 C         2.194552         1.417878         1.085757
 O         1.788955         0.802526        -0.059873
 C         0.936757        -0.036109         0.844709
 C         0.287616        -1.296666         0.211015
 C         1.630363         0.287934         2.099427
 O         2.121487        -0.604964         2.992041
 H        -1.281947         1.198064         3.243363
 H        -1.820150         1.522997         1.464670
 H        -1.504703        -0.227393         2.124195
 H         0.435568         2.929693         0.723836
 H         1.057212         2.872680         2.506624
 H         3.143218         1.926117         1.119886
 H        -0.015220        -1.960507         1.008431
 H        -0.484414        -1.041458        -0.459275
 H         1.107028        -1.817576        -0.388808
 H         2.439792        -0.374346         3.900912
