19
Iteration:  2897
 C        -1.056576         0.881429         2.310308
 C         0.291595         0.950033         1.773893
 C         0.849760         2.248572         1.509208
 C         2.203463         1.434436         1.153929
 O         1.825646         0.772206        -0.120719
 C         0.941497        -0.005733         0.718741
 C         0.332679        -1.349665         0.145811
 C         1.551593         0.278826         2.032896
 O         1.925890        -0.519729         3.180362
 H        -0.960493         0.816108         3.392591
 H        -1.717621         1.720556         2.024009
 H        -1.573712         0.010973         1.972773
 H         0.207755         2.754355         0.794800
 H         0.789907         2.955527         2.370572
 H         3.209407         1.984307         1.308233
 H        -0.121297        -1.853662         1.031824
 H        -0.356984        -1.188361        -0.645437
 H         1.100496        -2.019059        -0.171049
 H         2.586038        -1.228776         2.941277
