19
Iteration:  2748charge 0 multiplicity 1
 C        -1.033433         0.709595         2.529067
 C         0.206725         0.991496         1.678175
 C         0.985605         2.329797         1.461811
 C         2.256029         1.401090         1.173651
 O         1.802615         0.744034        -0.108793
 C         0.887066         0.007049         0.650078
 C         0.402941        -1.222445         0.080697
 C         1.521610         0.270086         2.045451
 O         1.848987        -0.476966         3.153885
 H        -1.857834         1.390566         2.468583
 H        -1.484391        -0.311288         2.260764
 H        -0.613562         0.656731         3.581408
 H         0.710573         3.116985         0.698550
 H         1.085179         2.721519         2.525160
 H         3.266302         1.683199         1.098393
 H        -0.055990        -1.749943         1.017165
 H        -0.327216        -1.103990        -0.776324
 H         1.238690        -1.930594        -0.186757
 H         1.447085        -1.333979         2.871723
