19
Iteration:  3469charge 0 multiplicity 1
 C        -1.179141         0.696287         2.327125
 C         0.225194         0.854344         1.706069
 C         0.967154         2.292537         1.502343
 C         2.174599         1.378861         1.172995
 O         1.828015         0.752762         0.003601
 C         0.882604        -0.058645         0.760533
 C         0.271841        -1.156695        -0.017280
 C         1.633927         0.218621         2.028828
 O         2.137095        -0.340696         3.169248
 H        -1.413295         1.576367         2.861983
 H        -1.968810         0.359900         1.531234
 H        -1.278919        -0.090297         3.092355
 H         0.437807         2.943835         0.858907
 H         1.086115         2.698279         2.472153
 H         3.165880         1.811880         1.284153
 H        -0.711986        -1.455942         0.486482
 H        -0.145616        -0.912418        -0.948320
 H         0.828117        -2.107972        -0.000165
 H         1.416493        -0.871666         3.540162
