19
Iteration:  4596charge 0 multiplicity 1
 C        -1.103179         0.640409         2.419765
 C         0.219476         0.896479         1.781819
 C         0.896737         2.327140         1.420489
 C         2.182283         1.415666         1.269244
 O         1.870273         0.791949         0.029582
 C         0.862349        -0.077920         0.660575
 C         0.220863        -1.268792         0.026411
 C         1.541001         0.300502         2.003170
 O         2.170069        -0.342291         3.095444
 H        -1.136541         1.079051         3.444837
 H        -2.063055         0.960859         1.853801
 H        -1.139139        -0.465874         2.646330
 H         0.673099         2.851198         0.440914
 H         0.835856         2.998516         2.314296
 H         3.241437         1.717997         1.192923
 H         0.325070        -1.279364        -1.064024
 H         0.646024        -2.207108         0.400703
 H        -0.849760        -1.306808         0.179927
 H         1.555239        -1.090656         3.326483
