19
Iteration:  3934charge 0 multiplicity 1
 C        -0.990045         0.676501         2.491005
 C         0.188967         0.957439         1.696951
 C         0.952377         2.261344         1.505372
 C         2.182078         1.417013         1.135169
 O         1.843684         0.749693        -0.095967
 C         0.893948        -0.023215         0.694620
 C         0.383473        -1.286127         0.039029
 C         1.523273         0.331431         1.991994
 O         1.899838        -0.453948         3.116398
 H        -0.875203         1.149615         3.490964
 H        -2.034586         0.906711         2.235311
 H        -1.199858        -0.447933         2.643431
 H         0.642316         3.131858         0.964668
 H         1.316642         2.640658         2.431399
 H         3.160348         1.888571         1.382350
 H        -0.428605        -1.750795         0.600449
 H        -0.165385        -0.864978        -0.853469
 H         1.133112        -2.017438        -0.115375
 H         1.502866        -0.137666         3.942435
