19
Iteration:  2420charge 0 multiplicity 1
 C        -1.164102         0.701485         2.311919
 C         0.261806         0.996938         1.755380
 C         0.933133         2.298662         1.459289
 C         2.200598         1.389512         1.155156
 O         1.841447         0.734443        -0.036715
 C         0.897999        -0.030743         0.748250
 C         0.263018        -1.202294         0.183264
 C         1.516609         0.337034         2.080432
 O         2.069757        -0.571165         3.029858
 H        -1.291210         1.056004         3.303715
 H        -1.977433         1.268529         1.753741
 H        -1.373460        -0.398898         2.388324
 H         0.539364         2.810293         0.617191
 H         1.301406         2.827561         2.319939
 H         3.189719         1.829899         1.216662
 H        -0.327005        -1.804775         0.961379
 H        -0.196910        -0.883516        -0.723038
 H         1.004669        -1.925296        -0.188592
 H         2.202103        -0.039887         3.843118
