19
Iteration:  1547
 C        -1.218111         0.774970         2.385321
 C         0.221564         0.915494         1.736633
 C         0.845139         2.320484         1.512740
 C         2.202388         1.505799         1.179927
 O         1.955696         0.772200        -0.015932
 C         0.927529         0.005905         0.650086
 C         0.345381        -1.357067         0.128908
 C         1.567061         0.251702         1.996734
 O         1.995104        -0.552628         3.017740
 H        -1.599561         1.788110         2.713572
 H        -2.015114         0.109022         2.033707
 H        -1.037825         0.349256         3.367112
 H         0.406514         2.993438         0.741113
 H         1.051897         2.763255         2.461385
 H         3.192674         1.771746         1.511479
 H        -0.340562        -1.791619         0.870093
 H        -0.076736        -1.201037        -0.937532
 H         1.083593        -2.132532         0.092695
 H         1.993609         0.070210         3.732676
