19
Iteration:  4359
 C        -1.005054         0.750506         2.520447
 C         0.237729         0.943978         1.730652
 C         0.794277         2.221220         1.371210
 C         2.223415         1.586332         1.111553
 O         1.931579         0.681351        -0.068295
 C         1.004635         0.000093         0.764577
 C         0.308933        -1.221133         0.005262
 C         1.638782         0.322066         2.108555
 O         1.816921        -0.604960         3.122339
 H        -0.921661         1.134943         3.602399
 H        -1.900504         1.263041         2.042070
 H        -1.260713        -0.401424         2.586289
 H         0.220353         2.591161         0.521522
 H         0.508437         2.930269         2.216107
 H         3.229260         1.908649         1.211455
 H        -0.173623        -1.950505         0.705971
 H        -0.480800        -0.788379        -0.797959
 H         1.071641        -1.752890        -0.574405
 H         1.862255        -0.155956         3.982646
