19
Iteration:   723
 C        -1.185510         0.697023         2.145125
 C         0.281467         0.965803         1.948222
 C         0.849228         2.282314         1.509218
 C         2.190113         1.410724         1.078871
 O         1.860106         0.754248        -0.100093
 C         0.865123        -0.000564         0.871167
 C         0.247120        -1.202762         0.191148
 C         1.629193         0.250340         2.148899
 O         2.152755        -0.569417         3.020711
 H        -1.750755         1.362904         2.860747
 H        -1.576991         1.255414         1.239750
 H        -1.587905        -0.376497         2.276622
 H         0.368875         2.721383         0.630801
 H         0.937520         3.033476         2.317096
 H         3.121691         1.907680         0.956885
 H        -0.614945        -1.636071         0.871837
 H        -0.316948        -0.788968        -0.642488
 H         0.917838        -1.954532        -0.124564
 H         2.344417        -0.081749         3.886119
