19
Iteration:  3966
 C        -1.096770         0.647743         2.549529
 C         0.240284         0.932119         1.805720
 C         0.954982         2.331267         1.386356
 C         2.211464         1.493719         1.150281
 O         1.850524         0.760359         0.014291
 C         0.871324        -0.032639         0.716199
 C         0.348738        -1.278183         0.025466
 C         1.603983         0.283956         1.984804
 O         1.871141        -0.548768         3.047324
 H        -1.140559         1.488727         3.226186
 H        -1.910213         0.660987         1.768071
 H        -0.952424        -0.380466         3.110401
 H         0.621721         2.860869         0.536176
 H         1.151966         3.112311         2.124719
 H         3.163364         2.040543         1.276879
 H        -0.404417        -1.773119         0.661206
 H        -0.182619        -0.810105        -0.904161
 H         1.158969        -1.926320        -0.316543
 H         1.893592         0.041491         3.820311
