19
Iteration:  1096charge 0 multiplicity 1
 C        -1.142869         0.744078         2.257094
 C         0.279959         0.927728         1.942121
 C         0.974513         2.293209         1.604874
 C         2.231922         1.418220         1.203770
 O         1.695670         0.793328        -0.040786
 C         0.948525        -0.015928         0.732985
 C         0.187634        -1.139290        -0.060790
 C         1.700871         0.242267         2.029240
 O         2.064001        -0.651001         3.049765
 H        -1.465920         1.726506         2.660179
 H        -1.834795         0.468830         1.405281
 H        -1.252430        -0.026702         3.093615
 H         0.237246         3.067641         1.020297
 H         1.118493         2.729517         2.635198
 H         3.185539         1.860274         1.180318
 H        -0.616277        -1.636846         0.526219
 H        -0.104204        -0.670193        -1.067426
 H         0.900013        -2.118753        -0.287602
 H         2.073742        -0.085770         3.889012
