19
Iteration:  2059charge 0 multiplicity 1
 C        -1.207466         0.640044         2.147111
 C         0.303077         0.978176         1.942327
 C         0.937585         2.336752         1.500499
 C         2.174291         1.528937         1.265284
 O         1.805240         0.748242         0.000163
 C         0.951889        -0.076829         0.762194
 C         0.125437        -1.112798         0.091835
 C         1.594183         0.166483         2.068744
 O         2.211187        -0.620282         3.015247
 H        -1.675845         0.425550         1.267441
 H        -1.407042        -0.061922         3.001497
 H        -1.695892         1.559627         2.481324
 H         0.533435         2.776960         0.596173
 H         0.978272         3.222704         2.159496
 H         3.196971         1.905210         0.979911
 H        -0.763096        -1.372921         0.770570
 H        -0.424022        -0.752720        -0.729424
 H         0.866926        -1.869566        -0.290332
 H         2.149541        -0.176947         3.897752
