19
Iteration:  2893charge 0 multiplicity 1
 C        -1.071765         0.874704         2.295364
 C         0.248476         0.945179         1.756739
 C         0.860625         2.240477         1.516914
 C         2.236969         1.481417         1.170297
 O         1.830701         0.752420        -0.097337
 C         0.913552        -0.047135         0.718277
 C         0.325492        -1.339212         0.174510
 C         1.568421         0.279641         2.026460
 O         1.951043        -0.495838         3.168624
 H        -0.987232         0.801663         3.433325
 H        -1.731376         1.676920         2.029314
 H        -1.550486        -0.049533         1.889766
 H         0.228832         2.933572         0.786397
 H         0.923649         2.889609         2.414183
 H         3.153618         1.865881         1.290947
 H        -0.182614        -1.925138         0.959100
 H        -0.419401        -1.028878        -0.714113
 H         1.139193        -2.047967        -0.222673
 H         2.493996        -1.195631         2.804388
