19
Iteration:  1525
 C        -1.139316         0.752930         2.330754
 C         0.173807         0.941051         1.651322
 C         0.908680         2.290962         1.514653
 C         2.132284         1.404695         1.284292
 O         1.876677         0.731057        -0.033296
 C         0.946039        -0.073007         0.735229
 C         0.274780        -1.248527         0.036161
 C         1.506641         0.262653         2.102859
 O         2.155539        -0.457662         3.052174
 H        -1.817619         1.663208         2.414903
 H        -1.607503        -0.028049         1.704463
 H        -1.186766         0.328228         3.319948
 H         0.745665         2.950567         0.642217
 H         0.805106         2.630629         2.513013
 H         3.111665         1.885146         1.395611
 H        -0.442060        -1.671077         0.734258
 H        -0.070302        -0.804075        -0.975526
 H         0.842512        -2.170087        -0.084535
 H         2.034512         0.112112         3.877389
