19
Iteration:   259
 C        -1.138764         0.786817         2.481976
 C         0.194970         1.026279         1.721860
 C         0.914799         2.259110         1.447755
 C         2.157873         1.473452         1.103404
 O         1.970092         0.741869        -0.099831
 C         0.899799        -0.079181         0.751804
 C         0.450025        -1.403909         0.210544
 C         1.594102         0.330365         1.996334
 O         1.790640        -0.520005         3.031431
 H        -1.052415         1.021771         3.587519
 H        -1.829465         1.617152         2.235141
 H        -1.442286        -0.200675         2.257433
 H         0.520066         3.049977         0.696116
 H         1.115246         2.816002         2.382269
 H         3.087861         1.888030         1.072162
 H         0.247396        -1.916373         1.068427
 H        -0.498317        -1.329210        -0.406550
 H         1.160037        -1.965711        -0.444102
 H         2.200433        -0.007253         3.782744
