19
Iteration:  3008charge 0 multiplicity 1
 C        -1.127491         0.728202         2.239062
 C         0.313461         0.936202         1.744620
 C         0.905404         2.281153         1.560653
 C         2.171375         1.485205         1.084279
 O         1.860541         0.648933        -0.017121
 C         0.883182        -0.078949         0.746153
 C         0.143885        -1.136516         0.085062
 C         1.663871         0.241747         2.075019
 O         2.059244        -0.427637         3.256741
 H        -1.641460         1.512797         2.671818
 H        -1.806080         0.357254         1.399532
 H        -1.155409        -0.160080         2.844042
 H         0.495551         2.833898         0.646373
 H         0.935997         3.111124         2.336255
 H         3.231284         2.096313         1.056682
 H        -0.674728        -1.622305         0.640142
 H        -0.295988        -0.775427        -0.813390
 H         0.832723        -1.925233        -0.216848
 H         2.481350        -1.209588         2.908164
