19
Iteration:  1963
 C        -1.006098         0.823670         2.495424
 C         0.230204         0.971666         1.715408
 C         0.878455         2.325066         1.474654
 C         2.189294         1.434757         1.085639
 O         1.764376         0.793562        -0.070067
 C         0.872314        -0.005717         0.641745
 C         0.558394        -1.272790         0.113858
 C         1.510817         0.294400         2.087279
 O         1.876397        -0.704829         3.091428
 H        -1.704176         1.764053         2.375439
 H        -1.509822        -0.152147         2.214931
 H        -0.697204         0.700791         3.536248
 H         0.574521         3.181182         0.848936
 H         1.002504         2.716138         2.493929
 H         3.144598         1.877864         1.054637
 H         0.024561        -2.060502         0.689299
 H        -0.183486        -1.129915        -0.808071
 H         1.439521        -1.532494        -0.331694
 H         1.408245        -0.400525         3.920398
