19
Iteration:  1500charge 0 multiplicity 1
 C        -1.218336         0.621788         2.248308
 C         0.208144         0.928854         1.827416
 C         0.936470         2.266175         1.489214
 C         2.204904         1.412888         1.122068
 O         1.865821         0.721569        -0.049949
 C         0.907922        -0.048821         0.830331
 C         0.192898        -1.109192         0.011692
 C         1.623458         0.241777         2.126155
 O         2.146521        -0.468932         3.156155
 H        -1.719072         1.552774         1.929867
 H        -1.657848        -0.227230         1.697492
 H        -1.572970         0.531914         3.333558
 H         0.574580         2.629385         0.552681
 H         1.085895         3.018345         2.359251
 H         3.035542         2.051826         0.943520
 H        -0.504475        -1.719929         0.518437
 H        -0.049174        -0.541488        -0.847047
 H         0.985410        -1.957160        -0.266557
 H         1.926656         0.093688         3.935383
