19
Iteration:  3262charge 0 multiplicity 1
 C        -1.125508         0.695235         2.311586
 C         0.200642         0.897712         1.690684
 C         0.950382         2.264337         1.501602
 C         2.210921         1.428972         1.257555
 O         1.886000         0.710060        -0.055053
 C         1.013173        -0.116994         0.757699
 C         0.133228        -1.155187         0.110404
 C         1.559537         0.268184         2.036399
 O         2.072225        -0.356367         3.108235
 H        -1.238381         1.334064         3.125728
 H        -1.967132         0.641096         1.598243
 H        -1.177115        -0.339600         2.793717
 H         0.641689         2.925283         0.611323
 H         0.945987         3.081457         2.292579
 H         3.229282         1.869366         1.298838
 H        -0.556284        -1.738904         0.775516
 H        -0.447277        -0.616764        -0.601748
 H         0.896940        -1.779264        -0.462968
 H         1.600170        -1.176796         3.438963
