19
Iteration:  1415
 C        -1.129560         0.757413         2.426849
 C         0.195304         1.066650         1.759447
 C         0.963297         2.328531         1.501571
 C         2.208787         1.495310         1.254142
 O         1.831392         0.756540        -0.093485
 C         0.949762        -0.014158         0.737786
 C         0.467606        -1.339414         0.174119
 C         1.528330         0.315694         2.027251
 O         1.854783        -0.667172         2.914546
 H        -1.733075         0.083302         1.742897
 H        -1.066664         0.233648         3.397768
 H        -1.573306         1.714718         2.705544
 H         0.472329         2.989902         0.701083
 H         1.243709         2.821802         2.459924
 H         3.190505         1.881940         1.378653
 H         0.218058        -2.107754         0.861165
 H        -0.455734        -1.272880        -0.517948
 H         1.370887        -1.686352        -0.476932
 H         1.705931        -0.168368         3.737836
