19
Iteration:  1114charge 0 multiplicity 1
 C        -1.174417         0.738207         2.206913
 C         0.284000         0.913001         1.875156
 C         0.945918         2.218364         1.619439
 C         2.176009         1.477738         1.161760
 O         1.811359         0.830193        -0.046444
 C         0.871921        -0.022232         0.789492
 C         0.159742        -1.046219         0.028314
 C         1.607271         0.157434         2.086898
 O         2.172941        -0.691955         3.034929
 H        -1.555923         1.737827         2.452384
 H        -1.695612         0.315694         1.326635
 H        -1.387749         0.083329         3.058183
 H         0.744520         2.921604         0.880776
 H         0.935838         2.901935         2.468840
 H         3.159870         1.960831         0.928875
 H        -0.769498        -1.497138         0.543111
 H        -0.092642        -0.647708        -0.886549
 H         0.762537        -1.855725         0.034498
 H         2.269773        -0.136217         3.874452
