19
Iteration:  4460charge 0 multiplicity 1
 C        -1.219626         0.722868         2.213398
 C         0.165384         0.866006         1.806793
 C         0.876109         2.239047         1.425806
 C         2.167162         1.526183         1.146531
 O         1.816385         0.830233        -0.050499
 C         0.937042         0.000069         0.819048
 C         0.240725        -1.197149         0.214855
 C         1.630946         0.256742         2.084450
 O         2.226533        -0.609893         3.089958
 H        -1.544448         1.479273         2.955404
 H        -1.871499         0.989371         1.265654
 H        -1.470006        -0.342445         2.495556
 H         0.591648         2.889756         0.575001
 H         1.220469         2.987885         2.161376
 H         3.140935         2.066852         1.050165
 H        -0.853369        -1.279616         0.179831
 H         0.700340        -1.288419        -0.861769
 H         0.597663        -2.085112         0.780084
 H         1.795236        -0.667925         3.951092
