19
Iteration:  1173charge 0 multiplicity 1
 C        -1.134305         0.778424         2.383376
 C         0.157555         1.018883         1.784115
 C         0.929436         2.358305         1.581164
 C         2.205506         1.470330         1.239426
 O         1.896747         0.789099        -0.085167
 C         0.929764         0.059027         0.723562
 C         0.342582        -1.170128         0.138235
 C         1.520655         0.207767         2.037560
 O         1.988169        -0.792553         2.924931
 H        -1.581749         1.526071         3.065846
 H        -1.834154         0.693054         1.504207
 H        -1.048597        -0.225810         2.899200
 H         0.654205         2.893877         0.638496
 H         0.943795         2.849458         2.553330
 H         3.224040         1.733839         1.176897
 H        -0.074250        -1.611429         1.002805
 H        -0.439873        -0.977037        -0.601023
 H         1.057021        -1.903504        -0.389991
 H         2.086027        -0.356715         3.768588
