19
Iteration:  2087
 C        -1.229317         0.683171         2.212991
 C         0.253187         0.877879         1.752727
 C         0.965817         2.237174         1.611593
 C         2.195709         1.453196         1.214318
 O         1.812872         0.729104        -0.055396
 C         0.928651        -0.033224         0.738472
 C         0.172254        -1.112546         0.082390
 C         1.585554         0.277907         2.127067
 O         2.164759        -0.526556         3.038554
 H        -2.068299         0.683457         1.343845
 H        -1.308054        -0.064688         2.988093
 H        -1.472530         1.615641         2.785302
 H         0.557989         2.978796         0.864468
 H         1.123790         2.802271         2.555688
 H         3.277662         1.739100         0.998613
 H        -0.376581        -1.698837         0.802154
 H        -0.539222        -0.754419        -0.730997
 H         0.952228        -1.740306        -0.464243
 H         2.313180        -0.168985         3.961430
