19
Iteration:  1323
 C        -1.141768         0.654747         2.238734
 C         0.206512         0.998308         1.758944
 C         0.901692         2.332746         1.580436
 C         2.211727         1.452897         1.212509
 O         1.845714         0.722299        -0.024246
 C         0.923462        -0.000059         0.694436
 C         0.227714        -1.099272         0.068840
 C         1.494319         0.188707         2.059268
 O         2.160628        -0.621820         3.063791
 H        -1.086811        -0.018898         3.044829
 H        -1.650722         1.564730         2.634300
 H        -1.875913         0.351365         1.465407
 H         0.441646         2.995722         0.885022
 H         1.191459         2.967815         2.487786
 H         3.244902         1.639198         1.561658
 H        -0.711857        -1.293706         0.696971
 H        -0.189320        -0.861559        -0.883032
 H         0.941908        -1.974441        -0.016200
 H         2.273434        -0.080099         3.838654
