19
Iteration:  3980
 C        -1.036216         0.717454         2.435843
 C         0.242283         0.951687         1.724200
 C         0.879095         2.229679         1.411987
 C         2.199842         1.480523         1.190884
 O         1.832287         0.770215        -0.092444
 C         0.953161        -0.029770         0.821403
 C         0.307818        -1.190278         0.061053
 C         1.589331         0.357286         2.107202
 O         1.939262        -0.609734         3.035041
 H        -1.407713         1.524412         3.120785
 H        -1.928415         0.512309         1.905361
 H        -1.071394        -0.159183         3.051757
 H         0.559129         2.843099         0.541035
 H         0.750487         2.805504         2.298223
 H         3.220506         1.836232         0.991601
 H        -0.374055        -1.834551         0.661857
 H        -0.268814        -0.876960        -0.775244
 H         1.103354        -1.840590        -0.181562
 H         2.008875        -0.335626         3.979288
