19
Iteration:  2635
 C        -1.224224         0.775913         2.148246
 C         0.206062         0.818452         1.831575
 C         0.979209         2.264698         1.586444
 C         2.183264         1.460603         1.172681
 O         1.780693         0.757282        -0.054884
 C         0.978069        -0.023892         0.797912
 C         0.154070        -1.094516         0.099555
 C         1.671539         0.242297         2.114460
 O         2.160183        -0.602897         3.056344
 H        -1.784596         0.331596         1.280224
 H        -1.459165         0.214477         3.072886
 H        -1.618116         1.764940         2.312087
 H         0.351207         2.780050         0.855218
 H         1.186620         2.916081         2.444376
 H         3.321316         1.754870         0.985240
 H        -0.437210        -1.646632         0.798608
 H        -0.465075        -0.584651        -0.642486
 H         0.668878        -1.955562        -0.294825
 H         2.372506        -0.133589         3.867681
