19
Iteration:  1644charge 0 multiplicity 1
 C        -1.165755         0.750842         2.228520
 C         0.229589         0.918631         1.665358
 C         0.928076         2.314339         1.502761
 C         2.136315         1.558199         1.316359
 O         1.924619         0.711662        -0.047104
 C         0.898192        -0.093452         0.751280
 C         0.263473        -1.300800         0.159318
 C         1.535232         0.242783         2.021494
 O         2.112796        -0.467366         3.049027
 H        -1.124278         0.846310         3.376571
 H        -2.065796         1.356524         2.021981
 H        -1.627192        -0.251681         2.263454
 H         0.469330         2.780639         0.643426
 H         0.722585         2.762852         2.537622
 H         3.096800         1.968941         1.206742
 H         0.066906        -1.964922         0.962670
 H        -0.545961        -1.020267        -0.558712
 H         1.066651        -1.845535        -0.395265
 H         2.008998         0.013263         3.873681
