19
Iteration:  3420
 C        -1.256049         0.689328         2.279982
 C         0.182275         1.000094         1.823180
 C         0.901319         2.208686         1.494888
 C         2.250155         1.386918         1.207108
 O         1.863458         0.737739        -0.060384
 C         0.949753         0.022560         0.763472
 C         0.258496        -1.213144         0.125301
 C         1.547960         0.322413         2.077227
 O         2.172167        -0.421119         3.080346
 H        -1.626200         1.402836         3.158563
 H        -1.982641         0.798591         1.466711
 H        -1.295014        -0.387153         2.583960
 H         0.586649         2.834617         0.542836
 H         1.075539         2.919764         2.494528
 H         3.308628         1.672146         1.257822
 H        -0.699329        -1.561433         0.450472
 H         0.109004        -1.036526        -1.009157
 H         0.793499        -2.167366         0.077809
 H         1.721639        -1.290935         3.120040
