19
Iteration:  4720
 C        -1.100679         0.759124         2.477996
 C         0.238119         0.976786         1.816078
 C         0.868066         2.404469         1.450932
 C         2.094127         1.523213         1.135728
 O         1.845164         0.733867        -0.065646
 C         0.946317        -0.043116         0.615095
 C         0.464151        -1.366686         0.190503
 C         1.557032         0.275069         2.064340
 O         1.912364        -0.536387         3.038594
 H        -0.900660         1.230945         3.499788
 H        -1.921181         1.311310         1.956354
 H        -1.556917        -0.336061         2.551702
 H         0.460967         3.238816         0.827038
 H         0.965373         3.019102         2.498933
 H         3.116519         1.950389         1.180149
 H         0.236276        -1.352046        -0.884295
 H         1.353957        -2.140441         0.306476
 H        -0.411891        -1.800473         0.517572
 H         2.284542        -1.380478         2.680275
