19
Iteration:  4786
 C        -1.118530         0.756076         2.350963
 C         0.216384         0.992008         1.821218
 C         0.898318         2.309706         1.537931
 C         2.151191         1.510410         1.155667
 O         1.927729         0.732739        -0.004429
 C         0.917219        -0.102704         0.653663
 C         0.265928        -1.392906         0.083256
 C         1.531180         0.341144         2.009783
 O         1.979522        -0.430677         3.088690
 H        -1.107100         1.097797         3.403887
 H        -1.878002         1.068342         1.645495
 H        -1.289138        -0.385092         2.446304
 H         0.300804         3.036310         0.975455
 H         1.098656         2.720521         2.628474
 H         3.216971         1.653577         1.214080
 H        -0.632524        -1.044048        -0.379880
 H         1.143940        -1.879583        -0.500254
 H         0.013699        -2.070453         0.842390
 H         2.831139        -0.744575         2.737816
