19
Iteration:  3220
 C        -1.207240         0.707622         2.216622
 C         0.253700         0.982590         1.791582
 C         1.005421         2.280847         1.537827
 C         2.168839         1.450598         1.188416
 O         1.843767         0.680829        -0.070376
 C         0.857118        -0.103641         0.790482
 C         0.142037        -1.206380         0.020230
 C         1.653398         0.253955         2.067334
 O         2.109845        -0.376781         3.220629
 H        -1.509604         1.397876         3.025052
 H        -1.859875         0.686343         1.412513
 H        -1.412095        -0.224701         2.857113
 H         0.733087         3.050315         0.763329
 H         1.040460         2.985914         2.435305
 H         3.177504         1.799301         1.212556
 H        -0.751306        -1.706337         0.458778
 H        -0.107135        -0.899549        -0.958989
 H         0.776941        -2.062605        -0.080859
 H         2.736538        -1.031585         2.841301
