19
Iteration:  3783
 C        -1.123308         0.787243         2.263184
 C         0.231051         0.957662         1.822372
 C         0.951922         2.329812         1.556679
 C         2.139272         1.479350         1.165717
 O         1.769943         0.754246        -0.156214
 C         0.876905         0.011056         0.777499
 C         0.438529        -1.270836         0.256240
 C         1.609142         0.240690         2.023523
 O         2.019998        -0.606114         3.011405
 H        -1.545490         1.273397         3.223781
 H        -1.807918         1.202553         1.559400
 H        -1.445856        -0.227614         2.418244
 H         0.447620         3.032058         0.808447
 H         1.084173         2.796993         2.551570
 H         3.170691         1.877820         1.023525
 H         0.116241        -2.010954         1.039505
 H        -0.346243        -1.273852        -0.536827
 H         1.284783        -1.709147        -0.263142
 H         1.482651        -0.509790         3.813809
