19
Iteration:  4827
 C        -1.113505         0.584703         2.184708
 C         0.275638         0.888487         1.778685
 C         0.883966         2.291468         1.463734
 C         2.250064         1.434742         1.118685
 O         1.774539         0.827003        -0.079557
 C         0.930630        -0.027189         0.757958
 C         0.150519        -1.120509         0.108327
 C         1.592503         0.205838         2.105641
 O         2.082842        -0.416003         3.284045
 H        -1.461612         1.137807         3.068134
 H        -1.741039         0.763800         1.302644
 H        -1.334983        -0.402902         2.541838
 H         0.486798         2.708134         0.551564
 H         1.122796         2.812928         2.369931
 H         3.299076         1.864981         1.283962
 H        -0.829236        -0.733638        -0.285413
 H         0.799982        -1.930295        -0.534601
 H        -0.116704        -1.850878         0.865767
 H         2.976554        -0.785111         3.070504
