19
Iteration:  3298
 C        -1.067012         0.705464         2.365055
 C         0.288327         0.965773         1.794597
 C         0.922159         2.295406         1.458983
 C         2.207508         1.447915         1.154051
 O         1.852025         0.704206        -0.108855
 C         0.876289         0.004503         0.704165
 C         0.338112        -1.191879         0.138898
 C         1.543758         0.241411         2.069715
 O         1.939352        -0.534785         3.140172
 H        -1.254848         1.315089         3.334688
 H        -1.817790         1.165248         1.795718
 H        -1.234020        -0.432536         2.522205
 H         0.405918         2.630636         0.487671
 H         1.168378         3.006867         2.384561
 H         3.144055         1.945500         0.996403
 H         0.152216        -2.131331         0.685626
 H        -0.515478        -1.011252        -0.537142
 H         1.080795        -1.439740        -0.608890
 H         1.459885        -0.143918         3.923654
