19
Iteration:  1673charge 0 multiplicity 1
 C        -1.332699         0.679673         2.186352
 C         0.243399         0.899733         1.860677
 C         0.925087         2.227331         1.442784
 C         2.189027         1.464059         1.138176
 O         1.819185         0.702167        -0.086806
 C         0.976607        -0.100423         0.807650
 C         0.269041        -1.134631         0.053864
 C         1.584656         0.276841         2.150526
 O         2.209766        -0.436647         3.190145
 H        -1.449741         0.582471         3.239753
 H        -1.856674         1.649239         2.088666
 H        -1.842195        -0.244986         1.725788
 H         0.383653         2.560486         0.533635
 H         1.033547         3.050781         2.214641
 H         3.202730         1.868016         0.998166
 H        -0.336713        -1.773710         0.707895
 H        -0.367240        -0.638666        -0.627795
 H         1.088829        -1.769259        -0.532290
 H         1.988788        -0.046196         4.034224
