19
Iteration:   840charge 0 multiplicity 1
 C        -1.018846         0.737066         2.507636
 C         0.216825         0.986103         1.726155
 C         0.906424         2.314384         1.517575
 C         2.218546         1.430083         1.131299
 O         1.868637         0.822076        -0.115045
 C         0.925984        -0.000218         0.717874
 C         0.415678        -1.233045         0.090489
 C         1.520006         0.195025         1.975720
 O         1.819168        -0.607806         3.041538
 H        -2.000887         0.650033         2.093492
 H        -0.883087        -0.183919         3.033704
 H        -0.971114         1.470442         3.261637
 H         0.382506         2.970101         0.828533
 H         1.011920         2.823541         2.546548
 H         3.312696         1.852086         1.204182
 H         0.025703        -1.919462         0.944164
 H        -0.439413        -1.163531        -0.614639
 H         1.231270        -1.785882        -0.268666
 H         1.664159        -0.053715         3.842468
