19
Iteration:  1218charge 0 multiplicity 1
 C        -1.035937         0.784481         2.415120
 C         0.285213         1.026564         1.777163
 C         0.954171         2.333459         1.631650
 C         2.224602         1.461079         1.194644
 O         1.776500         0.813876        -0.114436
 C         0.903153         0.052292         0.626891
 C         0.412862        -1.273444         0.093877
 C         1.531118         0.171935         1.985066
 O         1.828055        -0.694145         3.057064
 H        -0.869318         0.936437         3.533315
 H        -1.822953         1.523465         2.135764
 H        -1.260643        -0.291997         2.332757
 H         0.504390         2.934393         0.782525
 H         1.130157         2.724461         2.617836
 H         3.127959         2.026940         1.119365
 H         0.468126        -1.994112         0.818513
 H        -0.387394        -1.294895        -0.660586
 H         1.290115        -1.493687        -0.620214
 H         1.395601        -0.423595         3.868919
