19
Iteration:  1363
 C        -1.149900         0.826805         2.352606
 C         0.234015         0.959706         1.795056
 C         0.932471         2.347990         1.577580
 C         2.163801         1.481873         1.217524
 O         1.846590         0.817178        -0.032014
 C         0.946415        -0.001201         0.688611
 C         0.418923        -1.311338         0.135949
 C         1.540197         0.257672         2.043485
 O         1.968676        -0.694984         2.923822
 H        -1.458034        -0.250634         2.468160
 H        -1.169373         1.355243         3.312559
 H        -1.847233         1.305803         1.672267
 H         0.507752         2.870472         0.689024
 H         0.872643         2.763452         2.541002
 H         3.266041         1.743848         1.124025
 H        -0.228278        -1.718479         0.934847
 H        -0.220264        -1.154550        -0.784119
 H         1.086230        -2.080824        -0.042897
 H         1.677092        -0.287275         3.790467
