19
Iteration:  1306
 C        -1.150874         0.634659         2.222174
 C         0.279390         0.925462         1.892421
 C         0.964308         2.249692         1.532807
 C         2.180529         1.446555         1.203804
 O         1.853777         0.786208        -0.011994
 C         0.952096        -0.040394         0.814390
 C         0.116403        -1.106200         0.006652
 C         1.654630         0.260274         2.075991
 O         2.054648        -0.576820         3.055844
 H        -1.360961         0.010986         3.157915
 H        -1.748377         1.537694         2.430117
 H        -1.586776         0.071875         1.380096
 H         0.644083         2.978879         0.696433
 H         0.910690         3.005493         2.355754
 H         3.111204         1.984601         1.060369
 H        -0.760857        -1.476598         0.452562
 H        -0.161892        -0.586587        -0.950890
 H         0.669996        -2.022299        -0.332410
 H         2.356520        -0.059616         3.787588
