19
Iteration:  2867
 C        -1.314779         0.666373         2.267667
 C         0.114563         1.008909         1.741059
 C         1.058764         2.367092         1.529926
 C         2.218324         1.357307         1.153482
 O         1.866021         0.651306        -0.044376
 C         0.920875        -0.067857         0.718893
 C         0.264007        -1.204705         0.127342
 C         1.533609         0.296474         2.110012
 O         2.143695        -0.377855         3.116708
 H        -1.210676         0.746957         3.319888
 H        -2.088463         1.459033         1.961040
 H        -1.723169        -0.357092         1.968533
 H         0.719872         3.053089         0.754399
 H         1.134364         2.930216         2.483677
 H         3.389941         1.843064         1.304491
 H        -0.243276        -1.703997         0.985793
 H        -0.450529        -0.939152        -0.621779
 H         0.955082        -1.995577        -0.185923
 H         2.379213        -1.247062         2.805213
