19
Iteration:  3267
 C        -1.123359         0.689941         2.315603
 C         0.204686         0.941882         1.686265
 C         0.939171         2.280865         1.480591
 C         2.265168         1.449785         1.244116
 O         1.879522         0.725005        -0.039309
 C         1.002496        -0.122498         0.724919
 C         0.150715        -1.196753         0.112302
 C         1.565539         0.278367         2.049972
 O         2.066293        -0.406986         3.137608
 H        -1.251427         1.299339         3.307335
 H        -1.957475         0.671601         1.594388
 H        -1.227633        -0.307529         2.834725
 H         0.515743         2.930745         0.687943
 H         0.841081         3.106155         2.228547
 H         3.233810         1.919090         1.090114
 H        -0.501278        -1.874825         0.654630
 H        -0.489235        -0.564436        -0.577494
 H         0.746163        -1.812447        -0.530779
 H         1.475819        -1.070159         3.486184
