19
Iteration:  2764
 C        -1.008774         0.650515         2.535170
 C         0.116497         1.014271         1.611157
 C         1.074860         2.351636         1.453070
 C         2.168790         1.386604         1.203859
 O         1.848651         0.800916        -0.074765
 C         0.896746        -0.019739         0.734591
 C         0.348208        -1.310613         0.117342
 C         1.471914         0.272384         1.986704
 O         1.866028        -0.452474         3.136268
 H        -1.609638         1.618703         2.565664
 H        -1.695507        -0.038017         2.149630
 H        -0.677469         0.444336         3.525617
 H         0.874338         2.988894         0.595887
 H         1.153187         2.913071         2.341931
 H         3.301958         1.588539         1.406580
 H        -0.256082        -1.955711         0.638331
 H        -0.259511        -0.970799        -0.708845
 H         1.142508        -1.723224        -0.451933
 H         2.320130        -1.330828         2.961678
