19
Iteration:   521charge 0 multiplicity 1
 C        -1.245996         0.843821         2.097192
 C         0.246303         0.986713         1.896677
 C         0.949243         2.257227         1.566781
 C         2.146736         1.462602         1.129488
 O         1.693980         0.764486        -0.060918
 C         0.913634        -0.131388         0.853530
 C         0.329025        -1.331429         0.243039
 C         1.705223         0.285673         2.025195
 O         2.118632        -0.528749         3.042259
 H        -1.551598         0.730424         3.191571
 H        -1.811027         1.600395         1.562975
 H        -1.617096        -0.104504         1.782696
 H         0.538843         2.613075         0.613654
 H         1.143243         3.037174         2.238855
 H         3.151179         1.810996         1.222464
 H        -0.278965        -1.935138         0.783726
 H        -0.251697        -0.907650        -0.610678
 H         1.196280        -1.804261        -0.266892
 H         2.507097        -0.052111         3.752773
