19
Iteration:   570
 C        -1.209480         0.701895         2.300403
 C         0.141851         0.948527         1.569049
 C         0.867455         2.355280         1.457943
 C         2.208157         1.431968         1.250071
 O         1.928444         0.693465         0.010645
 C         0.941259        -0.111204         0.774370
 C         0.187249        -1.254883         0.230112
 C         1.648036         0.298784         2.015921
 O         2.175265        -0.472348         3.012087
 H        -1.116938         0.406981         3.349401
 H        -1.676194         1.735306         2.179764
 H        -1.979318        -0.118236         1.969731
 H         0.614018         3.186245         0.780371
 H         0.947507         2.706080         2.539520
 H         3.205032         1.916381         1.258915
 H        -0.645360        -1.585148         1.075722
 H        -0.433705        -0.918551        -0.656441
 H         0.802035        -2.116563        -0.126300
 H         1.782396         0.041965         3.793895
