19
Iteration:  1504
 C        -1.234274         0.611773         2.249106
 C         0.174218         0.928280         1.808150
 C         0.937102         2.282520         1.490695
 C         2.219013         1.412050         1.165886
 O         1.852463         0.719798        -0.036310
 C         0.910725        -0.076682         0.814905
 C         0.220424        -1.113236         0.026922
 C         1.623575         0.254141         2.087562
 O         2.152508        -0.459212         3.151303
 H        -1.696204         1.615558         1.990717
 H        -1.787317        -0.169144         1.713984
 H        -1.364197         0.563370         3.316351
 H         0.453731         2.680152         0.552294
 H         1.134321         2.930937         2.281151
 H         3.192283         1.918095         0.930718
 H        -0.550614        -1.716017         0.554233
 H        -0.023960        -0.496359        -0.931904
 H         0.920189        -1.862232        -0.223919
 H         1.999049         0.015820         3.975969
