19
Iteration:  4151charge 0 multiplicity 1
 C        -0.944485         0.648993         2.497615
 C         0.246806         0.972901         1.735858
 C         0.895998         2.327153         1.488846
 C         2.222686         1.447857         1.053292
 O         1.822814         0.777871        -0.131287
 C         0.886407        -0.039304         0.670179
 C         0.361204        -1.263726         0.083050
 C         1.580734         0.249514         2.026337
 O         1.849359        -0.496816         3.203820
 H        -0.965019         1.105652         3.483638
 H        -1.765950         1.005121         1.872125
 H        -1.167133        -0.441675         2.612481
 H         0.517581         3.081987         0.742196
 H         1.281364         2.891264         2.434502
 H         3.254546         1.849027         1.171387
 H        -0.437310        -1.779962         0.642860
 H        -0.233580        -0.961535        -0.829356
 H         1.027754        -2.050776        -0.156021
 H         1.298278        -0.074577         3.908950
