19
Iteration:  3914charge 0 multiplicity 1
 C        -1.089620         0.684055         2.465804
 C         0.252674         0.913922         1.723027
 C         0.925002         2.333477         1.567903
 C         2.241866         1.470187         1.175484
 O         1.779957         0.746181        -0.052424
 C         0.968886        -0.067505         0.663408
 C         0.294640        -1.288516         0.047874
 C         1.639355         0.229267         1.924441
 O         1.929559        -0.452619         3.133835
 H        -0.835227         0.973032         3.500390
 H        -1.801974         1.333874         2.050182
 H        -1.436005        -0.286264         2.268628
 H         0.715308         3.097370         0.739892
 H         0.621441         2.897326         2.435770
 H         3.160040         2.016931         0.858411
 H        -0.417892        -1.766077         0.727708
 H        -0.171506        -1.065407        -0.870988
 H         1.121026        -1.914795         0.025545
 H         1.459734        -0.043740         3.854239
