19
Iteration:   894charge 0 multiplicity 1
 C        -1.114602         0.678203         2.343749
 C         0.228152         0.981293         1.777469
 C         0.932706         2.255217         1.484604
 C         2.166472         1.467812         1.199864
 O         1.790165         0.758045        -0.096888
 C         0.931955         0.041355         0.761774
 C         0.229075        -1.112995         0.084300
 C         1.603776         0.220169         2.111378
 O         2.089531        -0.622851         3.056495
 H        -1.648728         0.002197         1.661287
 H        -1.205309         0.290048         3.353811
 H        -1.673085         1.583720         2.236373
 H         0.530495         2.812177         0.656111
 H         0.919653         2.835021         2.451380
 H         3.291873         1.778552         1.278775
 H        -0.473088        -1.704541         0.721999
 H        -0.242675        -0.985551        -0.918734
 H         1.010531        -1.751552        -0.146599
 H         2.245772        -0.156506         3.902786
