19
Iteration:   544
 C        -1.267488         0.776700         2.134625
 C         0.245842         0.957244         1.821996
 C         0.916357         2.280521         1.492941
 C         2.193861         1.435626         1.171371
 O         1.780899         0.704974        -0.055203
 C         0.958181        -0.067007         0.744310
 C         0.200244        -1.221537         0.227339
 C         1.538781         0.270839         2.132005
 O         2.269617        -0.515993         3.076928
 H        -1.555234         0.379292         3.170557
 H        -1.845370         1.664783         1.801507
 H        -1.615460        -0.083983         1.590736
 H         0.469359         2.861678         0.690774
 H         1.144135         2.852842         2.377867
 H         3.193101         1.917900         1.076028
 H        -0.410980        -1.731919         0.897734
 H        -0.303791        -1.088222        -0.775956
 H         1.026143        -1.888221        -0.008816
 H         2.227006         0.141376         3.850147
