19
Iteration:  2056
 C        -1.202552         0.645971         2.149188
 C         0.288719         0.948651         1.940976
 C         0.950940         2.343118         1.497417
 C         2.168036         1.532970         1.264335
 O         1.794966         0.744529         0.010195
 C         0.989814        -0.046269         0.757424
 C         0.110697        -1.110700         0.096739
 C         1.594737         0.180489         2.098458
 O         2.202194        -0.619839         2.996390
 H        -1.778989         0.307716         1.261855
 H        -1.399795        -0.072894         2.952762
 H        -1.633202         1.587884         2.532738
 H         0.545460         2.724266         0.513531
 H         0.986094         3.243816         2.175276
 H         3.254460         1.855887         0.952812
 H        -0.739364        -1.426637         0.753487
 H        -0.422254        -0.760740        -0.779002
 H         0.874131        -1.953454        -0.254570
 H         2.123574        -0.196722         3.849303
