19
Iteration:  1102charge 0 multiplicity 1
 C        -1.135184         0.760714         2.238479
 C         0.301651         0.894471         1.902641
 C         0.963533         2.248120         1.620162
 C         2.239331         1.501051         1.170979
 O         1.717993         0.786021        -0.016662
 C         0.864774         0.029391         0.737447
 C         0.187187        -1.140194        -0.017754
 C         1.672862         0.193692         2.063112
 O         2.103335        -0.655698         3.051949
 H        -1.680365         1.691622         2.471276
 H        -1.653754         0.424150         1.345087
 H        -1.334616         0.029030         2.984211
 H         0.311924         2.654219         0.951764
 H         1.212536         2.735123         2.548646
 H         3.286603         1.981581         1.226568
 H        -0.787630        -1.442302         0.449135
 H        -0.065178        -0.698904        -0.963934
 H         0.772425        -1.895740        -0.311159
 H         2.230317        -0.175846         3.867151
