19
Iteration:   390charge 0 multiplicity 1
 C        -1.107475         0.635995         2.359018
 C         0.232091         0.928890         1.681397
 C         0.929864         2.292070         1.525631
 C         2.162971         1.403935         1.211656
 O         1.872803         0.710804        -0.074970
 C         0.911557        -0.034121         0.689701
 C         0.274520        -1.243569         0.006639
 C         1.490572         0.310262         2.088578
 O         2.062936        -0.389505         3.164562
 H        -1.540662         1.667814         2.725734
 H        -1.896928         0.160786         1.722510
 H        -0.983864        -0.025297         3.211403
 H         0.606195         2.905964         0.651948
 H         1.104091         2.860542         2.423496
 H         3.184313         1.582730         1.119992
 H        -0.424863        -1.555753         0.740346
 H        -0.322522        -0.997169        -0.990590
 H         0.987239        -2.171250        -0.085193
 H         2.147054         0.152250         4.003653
