19
Iteration:  4764
 C        -1.161132         0.750350         2.470750
 C         0.163165         0.960987         1.781693
 C         0.928095         2.336160         1.471150
 C         2.164591         1.489520         1.162030
 O         1.814229         0.725234        -0.111948
 C         0.900164        -0.047153         0.709352
 C         0.476627        -1.282053         0.101105
 C         1.517234         0.241195         2.039358
 O         1.988522        -0.482807         3.122380
 H        -1.007230         1.149652         3.500785
 H        -1.858460         1.269194         1.803082
 H        -1.607502        -0.325960         2.481410
 H         0.615853         2.931823         0.592156
 H         1.119575         3.161321         2.299198
 H         3.210130         1.843815         1.239315
 H        -0.355939        -1.055006        -0.549994
 H         1.494661        -1.728277        -0.244927
 H         0.102079        -1.891664         0.865176
 H         2.130071        -1.375781         2.734325
