19
Iteration:  3463charge 0 multiplicity 1
 C        -1.113334         0.700273         2.280536
 C         0.197158         0.907102         1.688608
 C         0.918690         2.256278         1.550674
 C         2.205902         1.371152         1.242968
 O         1.837079         0.729107        -0.021121
 C         0.857081        -0.099233         0.737944
 C         0.213461        -1.191844         0.001086
 C         1.607953         0.280242         2.046761
 O         2.176687        -0.332523         3.147519
 H        -1.536505         1.685625         2.714719
 H        -1.944167         0.578279         1.647655
 H        -1.033714        -0.142059         3.044838
 H         0.319624         2.994087         0.885244
 H         1.033541         2.713916         2.632553
 H         3.191821         1.820770         1.423704
 H        -0.675070        -1.447821         0.567681
 H         0.098087        -0.954736        -1.154327
 H         0.798009        -2.127465        -0.083140
 H         1.455542        -0.906935         3.427485
