19
Iteration:   691charge 0 multiplicity 1
 C        -1.168676         0.748580         2.337701
 C         0.194755         0.993988         1.637982
 C         0.900726         2.377355         1.497891
 C         2.192993         1.452540         1.228521
 O         1.823830         0.728224        -0.145775
 C         0.962874        -0.079371         0.781039
 C         0.336573        -1.286888         0.220060
 C         1.528290         0.288819         2.063961
 O         2.123992        -0.569035         3.049394
 H        -0.963925         0.785285         3.433549
 H        -1.899498         1.513205         2.007672
 H        -1.770904        -0.162586         1.992539
 H         0.733295         3.032130         0.636130
 H         0.785390         2.945469         2.424235
 H         3.158882         1.843658         1.193091
 H        -0.316206        -1.738682         1.065154
 H        -0.372028        -0.948005        -0.512611
 H         0.935547        -2.135457        -0.093875
 H         1.740952        -0.382953         3.892182
