19
Iteration:  2157
 C        -1.058078         0.724235         2.480692
 C         0.219877         0.994355         1.741490
 C         0.932026         2.344604         1.467624
 C         2.257658         1.494873         1.063831
 O         1.804756         0.805865        -0.120016
 C         0.976258        -0.035828         0.823354
 C         0.424997        -1.281363         0.150755
 C         1.599334         0.320635         2.092085
 O         1.766777        -0.702452         2.973008
 H        -1.737282         1.515835         2.475793
 H        -1.569831        -0.290820         2.343944
 H        -0.695938         0.697044         3.543225
 H         0.489440         2.975557         0.671454
 H         0.973506         2.992788         2.386155
 H         3.221880         2.022187         1.183964
 H        -0.031752        -2.123563         0.828760
 H        -0.318271        -0.987422        -0.577494
 H         1.313327        -1.682016        -0.474901
 H         1.538909        -0.274467         3.833100
