19
Iteration:  3194charge 0 multiplicity 1
 C        -1.112309         0.799335         2.272545
 C         0.268757         0.948754         1.802963
 C         0.912561         2.230489         1.525173
 C         2.209971         1.428063         1.087118
 O         1.767404         0.747027        -0.088654
 C         0.976338        -0.058196         0.795245
 C         0.280903        -1.166007         0.118103
 C         1.573347         0.232049         2.068187
 O         1.966325        -0.521616         3.196124
 H        -1.258514         1.522866         3.061179
 H        -1.998652         1.029629         1.553320
 H        -1.302377        -0.214123         2.516870
 H         0.486731         2.755797         0.637315
 H         0.884280         2.964786         2.297250
 H         3.311824         1.726547         0.975840
 H        -0.585149        -1.468308         0.716495
 H        -0.015445        -1.046133        -0.960575
 H         1.071975        -2.030193         0.180278
 H         2.904414        -0.580310         2.989956
