19
Iteration:   318charge 0 multiplicity 1
 C        -1.280552         0.758777         2.152652
 C         0.291272         0.975093         1.837767
 C         0.892365         2.332148         1.500864
 C         2.197104         1.481791         1.165973
 O         1.788805         0.663399        -0.053337
 C         0.931505        -0.039467         0.827872
 C         0.305589        -1.287639         0.197062
 C         1.605962         0.283932         2.078725
 O         2.129551        -0.447353         3.126737
 H        -1.472931         1.047895         3.146575
 H        -1.891690         1.275949         1.387130
 H        -1.732186        -0.285201         2.072933
 H         0.530426         2.641232         0.526116
 H         0.995299         3.073003         2.342470
 H         3.265420         1.967380         1.054249
 H        -0.374308        -1.835278         0.924180
 H        -0.334066        -0.967894        -0.572293
 H         1.042797        -1.967931        -0.080924
 H         2.521594        -1.214169         2.616988
