19
Iteration:  1715
 C        -1.098559         0.659937         2.304328
 C         0.184658         0.900788         1.714564
 C         0.917702         2.278030         1.486578
 C         2.197558         1.455107         1.176817
 O         1.873359         0.732514        -0.093410
 C         1.023600        -0.057772         0.729192
 C         0.234590        -1.240439         0.112952
 C         1.478898         0.302329         2.108174
 O         2.062530        -0.392022         3.115931
 H        -1.098423         0.208643         3.303240
 H        -1.780834         1.524106         2.314654
 H        -1.704928        -0.133387         1.780559
 H         0.773412         2.952765         0.621379
 H         0.847378         2.675118         2.448293
 H         3.197956         1.910383         1.359259
 H        -0.414184        -1.723614         0.885509
 H        -0.226883        -0.997869        -0.842044
 H         0.842026        -2.112086        -0.141535
 H         1.893705        -0.081931         4.024663
