19
Iteration:  4795charge 0 multiplicity 1
 C        -1.122307         0.667846         2.335973
 C         0.228447         0.886928         1.734221
 C         0.910010         2.315726         1.571989
 C         2.193890         1.504603         1.159762
 O         1.915747         0.744775        -0.047759
 C         0.921443        -0.089577         0.735809
 C         0.232004        -1.311672         0.130625
 C         1.514029         0.282233         2.030188
 O         1.994190        -0.401318         3.084827
 H        -1.311916         1.328024         3.178296
 H        -1.810398         1.159637         1.667800
 H        -1.443790        -0.362807         2.468700
 H         0.589352         3.124849         0.918197
 H         1.187618         2.880748         2.497946
 H         3.196874         1.976369         1.370884
 H        -0.693374        -1.151210        -0.460121
 H         0.821076        -1.869638        -0.772573
 H        -0.014255        -1.937426         0.941968
 H         2.946052        -0.474276         2.925987
