19
Iteration:  4753
 C        -1.162531         0.755065         2.460406
 C         0.199982         0.875538         1.738209
 C         0.956077         2.284947         1.351267
 C         2.177782         1.443515         1.153475
 O         1.749379         0.806454        -0.057772
 C         0.878568         0.042766         0.754979
 C         0.516600        -1.263385         0.154519
 C         1.561298         0.342807         2.044318
 O         1.970204        -0.539592         3.126624
 H        -1.086129         1.176784         3.506403
 H        -1.926884         1.474643         2.115160
 H        -1.583704        -0.317371         2.656477
 H         0.513462         2.765515         0.472671
 H         0.955853         2.826941         2.408124
 H         3.257653         1.655897         1.081113
 H        -0.009378        -1.158352        -0.804338
 H         1.438746        -1.792928        -0.360038
 H         0.037640        -1.951395         0.765206
 H         1.909410        -1.472759         2.885050
