19
Iteration:  3540charge 0 multiplicity 1
 C        -1.126382         0.677450         2.366533
 C         0.153930         0.981308         1.662832
 C         0.871941         2.324828         1.426790
 C         2.181474         1.398946         1.173246
 O         1.923419         0.797188        -0.080196
 C         1.007272         0.010565         0.700269
 C         0.356988        -1.221840         0.209576
 C         1.556575         0.365885         2.048065
 O         1.892883        -0.608046         3.095664
 H        -0.978936         0.940678         3.474144
 H        -2.056371         0.966300         2.007256
 H        -1.320844        -0.434478         2.451317
 H         0.682697         2.984436         0.647234
 H         1.029378         2.789730         2.332468
 H         3.211942         1.714528         1.393255
 H         0.209698        -1.988100         0.932928
 H        -0.750737        -1.159732        -0.074118
 H         0.932316        -1.835355        -0.486756
 H         2.513442        -0.203326         3.727961
