19
Iteration:  4693
 C        -1.143241         0.693282         2.413057
 C         0.162973         0.938648         1.711786
 C         0.948060         2.253127         1.553732
 C         2.178350         1.512187         1.179771
 O         1.871786         0.745140        -0.123521
 C         0.914100         0.015679         0.678412
 C         0.333868        -1.283876         0.264918
 C         1.552098         0.280752         2.025113
 O         1.964660        -0.472560         3.019796
 H        -1.064372         1.164168         3.348547
 H        -2.025884         0.951974         1.864821
 H        -1.201394        -0.300474         2.644427
 H         0.569984         2.865673         0.726083
 H         0.900793         2.814360         2.382899
 H         3.189811         1.848331         1.361611
 H         0.357896        -1.153284        -0.848651
 H         0.935531        -2.138660         0.531014
 H        -0.793615        -1.534179         0.395606
 H         2.946490        -0.550227         3.037689
