19
Iteration:  1348
 C        -1.228008         0.740711         2.334485
 C         0.157376         0.948713         1.714243
 C         0.973135         2.247451         1.560197
 C         2.264414         1.471798         1.271218
 O         1.899022         0.820616        -0.010282
 C         0.880829        -0.035643         0.718127
 C         0.279055        -1.284118         0.144521
 C         1.555112         0.279330         2.013667
 O         2.052716        -0.586888         2.910512
 H        -1.356819        -0.224943         2.882642
 H        -1.450300         1.521834         3.106078
 H        -2.063700         0.952338         1.613135
 H         0.662613         3.149622         0.926836
 H         1.305314         2.808868         2.505230
 H         3.206079         1.890743         1.520337
 H        -0.555526        -1.657814         0.694697
 H        -0.154514        -1.044330        -0.842737
 H         1.244525        -1.951459        -0.042310
 H         1.913636        -0.365297         3.855414
