19
Iteration:  2896
 C        -1.059289         0.881479         2.304329
 C         0.282148         0.949099         1.770297
 C         0.852015         2.243407         1.512044
 C         2.215678         1.445653         1.157903
 O         1.826176         0.767372        -0.116149
 C         0.935320        -0.013715         0.720039
 C         0.331071        -1.348671         0.152110
 C         1.553467         0.280904         2.029800
 O         1.932287        -0.514829         3.178523
 H        -0.958800         0.810778         3.411181
 H        -1.720263         1.698629         2.027556
 H        -1.558703         0.010001         1.951814
 H         0.194082         2.803185         0.796761
 H         0.812604         2.951009         2.380891
 H         3.168502         1.947637         1.309765
 H        -0.133384        -1.876255         1.022417
 H        -0.380004        -1.144220        -0.674990
 H         1.108887        -2.031087        -0.181157
 H         2.563529        -1.221855         2.911310
