19
Iteration:  3024charge 0 multiplicity 1
 C        -1.205995         0.642431         2.191014
 C         0.217545         0.954422         1.901304
 C         0.925347         2.286125         1.431681
 C         2.239731         1.441826         1.148374
 O         1.901291         0.670552        -0.061553
 C         0.922889        -0.061075         0.779625
 C         0.110100        -1.151327         0.069227
 C         1.595375         0.289830         2.136871
 O         2.100340        -0.427964         3.193083
 H        -1.562173         1.650862         2.663828
 H        -1.765078         0.541799         1.289796
 H        -1.369161        -0.136809         2.984141
 H         0.555336         3.012970         0.729915
 H         1.235418         2.650964         2.376891
 H         3.173053         1.824468         1.114842
 H        -0.691424        -1.565103         0.700461
 H        -0.446823        -0.725321        -0.836873
 H         0.735856        -1.976372        -0.292269
 H         3.010927        -0.743534         2.989165
