19
Iteration:  3146
 C        -1.043722         0.774263         2.438392
 C         0.172719         1.010060         1.649083
 C         0.898658         2.293286         1.473011
 C         2.182371         1.411340         1.251620
 O         1.872386         0.658986        -0.128108
 C         0.960415         0.014104         0.693609
 C         0.460541        -1.275474         0.267811
 C         1.450687         0.292106         2.019013
 O         1.878729        -0.463745         3.055736
 H        -0.716812         1.144796         3.531571
 H        -1.998316         1.325671         2.341511
 H        -1.325453        -0.279883         2.236476
 H         0.688927         2.994152         0.687195
 H         1.137674         2.983128         2.323840
 H         3.156655         1.772558         1.369812
 H        -0.281500        -1.733097         0.984323
 H        -0.238546        -0.956428        -0.589350
 H         1.129437        -1.976209        -0.204632
 H         2.003521        -1.388782         2.673743
