19
Iteration:  1771
 C        -1.056707         0.777181         2.393904
 C         0.206624         0.997971         1.712621
 C         0.931595         2.381657         1.395032
 C         2.156453         1.485715         1.098259
 O         1.740019         0.782677        -0.051912
 C         1.015953        -0.070672         0.797428
 C         0.574196        -1.337770         0.206224
 C         1.550074         0.297655         2.056998
 O         1.780285        -0.660036         3.023135
 H        -0.811179         0.514756         3.408397
 H        -1.619822         1.666559         2.695076
 H        -1.731632        -0.079164         2.133324
 H         0.607085         3.000316         0.594387
 H         1.051903         3.055985         2.228540
 H         3.152346         1.883543         1.154691
 H        -0.026372        -1.870178         0.877412
 H        -0.114360        -1.171986        -0.537579
 H         1.477728        -1.904433        -0.190977
 H         1.700255        -0.200695         3.873000
