19
Iteration:  4973charge 0 multiplicity 1
 C        -1.071885         0.683532         2.388142
 C         0.218630         0.961780         1.681290
 C         0.940290         2.353416         1.482058
 C         2.181037         1.486880         1.221747
 O         1.785100         0.845210        -0.049169
 C         0.880521        -0.040093         0.753431
 C         0.406419        -1.299755         0.177507
 C         1.543764         0.243408         1.979516
 O         1.962522        -0.476549         3.081714
 H        -0.928852         0.808550         3.437416
 H        -1.873178         1.262984         2.057425
 H        -1.443056        -0.332838         2.171277
 H         0.434308         2.782841         0.647336
 H         0.819706         3.037261         2.382558
 H         3.241252         1.563985         1.326972
 H        -0.104817        -1.218708        -0.771362
 H         1.302895        -2.113721        -0.018978
 H        -0.360336        -1.770084         0.912808
 H         2.319223        -1.331875         2.840679
