19
Iteration:   628
 C        -0.979878         0.746637         2.477622
 C         0.202709         1.014712         1.717761
 C         0.989196         2.299685         1.367804
 C         2.221571         1.516921         1.003236
 O         1.713939         0.713629        -0.048267
 C         0.926744        -0.087485         0.814160
 C         0.520036        -1.309210         0.075095
 C         1.541338         0.346193         2.115075
 O         1.770216        -0.609739         3.141176
 H        -0.711433         0.462581         3.485342
 H        -1.569682         1.615908         2.668079
 H        -1.643908         0.016259         2.027072
 H         0.714905         3.009267         0.515156
 H         1.116448         2.908904         2.281523
 H         2.965032         2.238198         0.734360
 H         0.016046        -1.961578         0.734957
 H        -0.222570        -0.975474        -0.611294
 H         1.444598        -1.867622        -0.448185
 H         1.631661        -0.203054         3.986737
