19
Iteration:  1499charge 0 multiplicity 1
 C        -1.215255         0.627734         2.248729
 C         0.221675         0.928418         1.833607
 C         0.935611         2.259261         1.489794
 C         2.198239         1.415287         1.112705
 O         1.867045         0.720058        -0.052579
 C         0.907965        -0.042136         0.832207
 C         0.193325        -1.109822         0.007455
 C         1.622285         0.240116         2.133783
 O         2.144841        -0.472258         3.157304
 H        -1.735385         1.520610         1.912769
 H        -1.620538        -0.239846         1.694257
 H        -1.605541         0.520193         3.323201
 H         0.598106         2.648990         0.541909
 H         1.064396         3.027617         2.361205
 H         3.031800         2.090879         0.961773
 H        -0.535285        -1.724452         0.523352
 H        -0.076834        -0.566933        -0.834861
 H         0.981646        -1.945949        -0.278014
 H         1.909495         0.113562         3.937609
