19
Iteration:  3686
 C        -1.051368         0.615789         2.402543
 C         0.306149         0.998054         1.896524
 C         0.900490         2.361412         1.424080
 C         2.221981         1.408010         1.166479
 O         1.782641         0.705414        -0.022301
 C         0.987627        -0.122129         0.706717
 C         0.259443        -1.134743        -0.028637
 C         1.557247         0.264485         1.971323
 O         2.002295        -0.452181         3.167834
 H        -1.748102         1.234300         3.053679
 H        -1.742298         0.282013         1.599997
 H        -0.965935        -0.286788         2.962951
 H         0.510853         2.758799         0.588598
 H         0.910404         3.111936         2.220236
 H         3.321174         1.644022         1.334237
 H        -0.715622        -1.357382         0.500857
 H        -0.060119        -0.819550        -1.040504
 H         0.752627        -2.091936        -0.223548
 H         1.565305         0.024828         3.919931
