19
Iteration:  2469charge 0 multiplicity 1
 C        -1.200482         0.733974         2.170870
 C         0.267426         0.901781         1.796998
 C         0.938603         2.220519         1.489338
 C         2.146857         1.438314         1.239777
 O         1.810762         0.792896        -0.070652
 C         0.871384        -0.055798         0.791172
 C         0.153637        -1.129620         0.166829
 C         1.630336         0.245803         2.074562
 O         2.237946        -0.536175         3.070416
 H        -1.738585         1.702591         2.380960
 H        -1.763754         0.369909         1.370483
 H        -1.259844         0.100309         3.020819
 H         0.674443         2.840244         0.595859
 H         1.063824         2.707041         2.478123
 H         3.244707         1.724077         1.068354
 H        -0.610040        -1.347199         0.807443
 H        -0.085814        -0.894838        -0.878885
 H         0.689865        -2.076282         0.184429
 H         1.880850        -0.253137         3.932492
