19
Iteration:  3939charge 0 multiplicity 1
 C        -1.026188         0.672333         2.513229
 C         0.198743         1.002884         1.769275
 C         0.923534         2.261126         1.485921
 C         2.173671         1.364328         1.159027
 O         1.850556         0.735179        -0.138798
 C         0.937137        -0.009041         0.648724
 C         0.366967        -1.279655         0.021545
 C         1.499148         0.351210         1.999782
 O         1.898715        -0.478805         3.138056
 H        -0.732922         1.203973         3.443907
 H        -2.030825         0.863253         2.104552
 H        -0.807860        -0.379668         2.625733
 H         0.689106         3.233767         0.899199
 H         1.150493         2.775624         2.501373
 H         3.094970         1.882450         1.337921
 H        -0.409139        -1.726780         0.672615
 H        -0.096471        -0.964064        -0.890785
 H         1.259751        -1.966199        -0.146490
 H         1.570879        -0.141980         3.993516
