19
Iteration:  2439
 C        -1.202716         0.736962         2.216322
 C         0.249853         0.936903         1.859635
 C         0.898581         2.305513         1.516672
 C         2.231273         1.597162         1.150418
 O         1.831028         0.688858        -0.081278
 C         0.963966        -0.127638         0.808232
 C         0.170799        -1.169874         0.183620
 C         1.687279         0.242564         2.062657
 O         2.101462        -0.575752         3.051978
 H        -1.599576         1.400499         3.058470
 H        -1.751412         0.899724         1.229545
 H        -1.390640        -0.302221         2.621521
 H         0.472518         2.882439         0.653058
 H         0.837657         2.846852         2.494460
 H         3.157073         1.855207         0.897721
 H        -0.738590        -1.488533         0.855064
 H        -0.212849        -0.776299        -0.866616
 H         0.721858        -2.114026        -0.180724
 H         2.165159        -0.036718         3.848526
