19
Iteration:  2376charge 0 multiplicity 1
 C        -1.039145         0.839120         2.545228
 C         0.221642         0.929651         1.738028
 C         0.933030         2.294962         1.492529
 C         2.213786         1.443504         1.080355
 O         1.850922         0.792017        -0.100425
 C         0.982594        -0.056526         0.707452
 C         0.448303        -1.376284         0.133769
 C         1.469525         0.336939         2.022907
 O         1.809337        -0.562929         3.012135
 H        -0.913421         0.849269         3.568819
 H        -1.620578         1.802338         2.392960
 H        -1.654564        -0.060373         2.293541
 H         0.570175         2.965506         0.742944
 H         0.934808         2.746001         2.473612
 H         3.247766         1.837634         1.113339
 H         0.413311        -2.152538         0.972221
 H        -0.408113        -1.191095        -0.427300
 H         1.114919        -1.893236        -0.559326
 H         1.549085        -0.264127         3.897541
