19
Iteration:  1017charge 0 multiplicity 1
 C        -1.070487         0.686806         2.553669
 C         0.225907         0.942561         1.783726
 C         0.961465         2.338614         1.509929
 C         2.214732         1.542598         1.080261
 O         1.847803         0.856384        -0.079584
 C         1.047888        -0.024797         0.713239
 C         0.353362        -1.162008         0.052661
 C         1.602320         0.274635         2.044708
 O         1.758017        -0.778586         3.011833
 H        -0.977939         0.440507         3.612763
 H        -1.788827         1.515585         2.284579
 H        -1.587916        -0.193707         2.106901
 H         0.632735         2.991687         0.597069
 H         0.957815         3.111618         2.320157
 H         3.228409         1.925601         1.126399
 H         0.126199        -1.918356         0.956507
 H        -0.597554        -0.924138        -0.385059
 H         1.020645        -1.782116        -0.610205
 H         1.827378        -0.354653         3.919629
