19
Iteration:   384
 C        -1.129395         0.644308         2.315388
 C         0.150810         0.902119         1.681485
 C         0.933713         2.279047         1.484034
 C         2.197186         1.343907         1.206927
 O         1.869887         0.719848        -0.036708
 C         0.895239        -0.033171         0.669254
 C         0.249802        -1.217701         0.021278
 C         1.519424         0.314597         2.110319
 O         2.124031        -0.366762         3.144832
 H        -1.320022         1.584769         2.689074
 H        -1.926350         0.207488         1.723692
 H        -0.955261         0.037221         3.235988
 H         0.606953         2.977875         0.701538
 H         1.000912         2.762872         2.514425
 H         3.252370         1.868816         1.345395
 H        -0.549604        -1.615854         0.755208
 H        -0.211317        -1.046306        -0.889176
 H         0.942536        -1.966532        -0.036533
 H         2.017706        -0.015060         4.070514
