19
Iteration:  1055charge 0 multiplicity 1
 C        -1.073100         0.659451         2.515834
 C         0.232132         0.980719         1.701448
 C         0.895629         2.342941         1.605109
 C         2.233563         1.394169         1.226269
 O         1.927763         0.791894        -0.050919
 C         0.804676         0.026133         0.651453
 C         0.274378        -1.165789         0.027754
 C         1.588206         0.269450         2.001823
 O         1.943553        -0.598041         2.965103
 H        -1.117771         1.331304         3.389447
 H        -2.004972         0.931225         2.058493
 H        -1.121629        -0.400756         2.775282
 H         0.848384         2.969212         0.704055
 H         1.065737         2.670144         2.613228
 H         3.339596         1.578854         1.363998
 H        -0.107015        -1.667001         0.845833
 H        -0.485005        -1.177695        -0.867727
 H         1.222029        -1.739588        -0.367960
 H         1.511831        -0.437492         3.802147
