19
Iteration:   564charge 0 multiplicity 1
 C        -1.214922         0.703769         2.217440
 C         0.133069         0.974212         1.598520
 C         0.878442         2.333687         1.495901
 C         2.161744         1.430373         1.225458
 O         1.934768         0.692084        -0.015798
 C         0.851329        -0.061896         0.823706
 C         0.195000        -1.277716         0.222653
 C         1.688913         0.279469         2.048205
 O         2.215549        -0.472078         3.028259
 H        -1.081730         0.505237         3.307269
 H        -1.643637         1.668586         2.163465
 H        -1.820820        -0.071665         1.875036
 H         0.654623         3.136933         0.754786
 H         0.901677         2.675597         2.502550
 H         3.140681         1.861845         1.262019
 H        -0.485174        -1.528804         0.903604
 H        -0.396686        -0.863071        -0.566798
 H         0.657809        -2.241712        -0.120168
 H         1.916698        -0.008259         3.840541
