19
Iteration:  2334charge 0 multiplicity 1
 C        -1.015540         0.783122         2.443580
 C         0.259958         0.969011         1.743396
 C         0.943949         2.290274         1.433518
 C         2.218873         1.506141         1.127461
 O         1.776797         0.792435        -0.088308
 C         0.929106        -0.013259         0.752202
 C         0.400695        -1.351881         0.082356
 C         1.554262         0.309124         2.083993
 O         1.849317        -0.621290         3.096637
 H        -0.907934         0.762862         3.527261
 H        -1.736921         1.588221         2.236548
 H        -1.472425        -0.144842         2.044864
 H         0.579237         2.896111         0.586249
 H         0.950170         2.993927         2.268488
 H         3.263804         1.916419         0.819529
 H         0.227883        -2.012573         0.953385
 H        -0.551929        -1.263007        -0.296640
 H         1.148514        -1.743799        -0.541636
 H         1.541333        -0.401390         3.977244
