19
Iteration:   146
 C        -1.206523         0.645213         2.130696
 C         0.261661         0.959201         1.936118
 C         0.912796         2.276574         1.419589
 C         2.156900         1.368954         1.117465
 O         1.789974         0.755560        -0.097918
 C         1.009210        -0.060564         0.785503
 C         0.166642        -1.154279         0.114301
 C         1.599619         0.239520         2.140260
 O         2.215243        -0.401861         3.201016
 H        -1.691516         1.464594         2.656423
 H        -1.819104         0.675345         1.289343
 H        -1.443163        -0.367141         2.587294
 H         0.380005         2.678889         0.550408
 H         1.254464         2.935073         2.264850
 H         3.293712         1.511526         1.091357
 H        -0.797802        -1.402220         0.743244
 H        -0.065999        -0.927194        -0.830265
 H         0.762204        -2.034567        -0.042262
 H         1.810468        -0.243451         4.029586
