19
Iteration:    53charge 0 multiplicity 1
 C        -1.049700         0.883551         2.447639
 C         0.196261         1.039629         1.705067
 C         0.934141         2.304307         1.436475
 C         2.181859         1.539615         1.151774
 O         1.811359         0.716209        -0.115185
 C         0.936844        -0.047205         0.758969
 C         0.583747        -1.504743         0.252731
 C         1.529775         0.399733         2.065714
 O         1.763811        -0.618311         2.982353
 H        -0.963093         1.214823         3.458788
 H        -1.973128         1.388925         2.087410
 H        -1.200965        -0.133123         2.395871
 H         0.632694         2.913832         0.604370
 H         1.101879         2.739543         2.384072
 H         3.052104         2.137915         1.033866
 H         0.377575        -2.178421         0.960402
 H        -0.305210        -1.446045        -0.492407
 H         1.480123        -1.798155        -0.330758
 H         1.390739        -0.542641         3.904766
