19
Iteration:  3724
 C        -1.052196         0.670052         2.523666
 C         0.220787         0.926937         1.629245
 C         0.806026         2.282098         1.454078
 C         2.242896         1.481645         1.149016
 O         1.938964         0.683283         0.021395
 C         0.891668        -0.050020         0.719200
 C         0.257764        -1.165111        -0.016996
 C         1.672659         0.283477         2.049666
 O         1.880522        -0.509546         3.085186
 H        -1.236997         1.565450         3.051439
 H        -1.858379         0.193150         1.922968
 H        -0.773916        -0.136446         3.307458
 H         0.267932         3.072494         0.677524
 H         0.828111         2.784412         2.460917
 H         3.178606         1.967148         0.972841
 H        -0.574114        -1.463201         0.577255
 H        -0.165096        -0.734189        -0.943314
 H         1.017117        -1.945101         0.045180
 H         2.288269         0.003206         3.833687
