19
Iteration:   529
 C        -1.266289         0.754866         2.116587
 C         0.216691         0.957316         1.979301
 C         0.960659         2.299027         1.493286
 C         2.151867         1.427137         1.132927
 O         1.711667         0.743504        -0.057953
 C         0.920298        -0.092802         0.845040
 C         0.354341        -1.265346         0.198391
 C         1.664317         0.240998         2.025938
 O         2.163458        -0.490977         3.049398
 H        -1.686209         0.830803         3.084782
 H        -1.612122         1.663612         1.670556
 H        -1.787191         0.000767         1.503551
 H         0.583106         2.842058         0.582970
 H         1.068684         3.054415         2.286786
 H         3.188165         1.651597         1.165959
 H        -0.366622        -1.649598         0.945581
 H        -0.308535        -0.876832        -0.485387
 H         1.006930        -2.109931        -0.241577
 H         2.451626        -0.065104         3.840993
