19
Iteration:   491
 C        -1.227342         0.831019         2.299446
 C         0.178080         0.949462         1.680184
 C         0.924434         2.319054         1.544039
 C         2.096819         1.475798         1.124082
 O         1.863887         0.726522        -0.044376
 C         0.887393        -0.021121         0.682694
 C         0.410184        -1.313808         0.264701
 C         1.542615         0.304039         2.029056
 O         2.132722        -0.618462         3.020469
 H        -1.167988         1.438509         3.259788
 H        -2.038042         1.293295         1.612274
 H        -1.544912        -0.212070         2.599945
 H         0.580670         2.964965         0.716421
 H         1.176248         2.934860         2.446959
 H         3.139867         1.802378         1.343894
 H         0.091888        -1.841924         1.288748
 H        -0.532830        -1.233192        -0.443555
 H         1.194349        -1.927714        -0.171048
 H         1.970704        -0.244390         3.937676
