19
Iteration:  2754
 C        -1.027452         0.676671         2.547258
 C         0.205879         0.978415         1.608834
 C         1.018437         2.358911         1.457033
 C         2.215282         1.352044         1.175950
 O         1.802090         0.770650        -0.087196
 C         0.903584        -0.010435         0.640270
 C         0.399177        -1.229022         0.124757
 C         1.455568         0.309481         2.020804
 O         1.866109        -0.479069         3.165126
 H        -1.761788         1.541356         2.542457
 H        -1.519548        -0.255860         2.330403
 H        -0.756253         0.537972         3.572701
 H         0.797905         3.100850         0.731864
 H         1.094620         2.810669         2.421779
 H         3.415159         1.674235         1.151349
 H        -0.125189        -1.873023         0.782302
 H        -0.266364        -0.949759        -0.652870
 H         1.235963        -1.805391        -0.226532
 H         1.698977        -1.427987         2.908555
