19
Iteration:   997charge 0 multiplicity 1
 C        -1.024635         0.749781         2.400614
 C         0.285872         0.970275         1.822734
 C         0.868035         2.237102         1.528831
 C         2.223976         1.535789         1.142155
 O         1.830492         0.779478        -0.069398
 C         0.887922         0.068060         0.753172
 C         0.331495        -1.174365         0.086681
 C         1.617683         0.208146         2.036918
 O         1.845869        -0.713542         2.989489
 H        -0.861461         0.234122         3.338631
 H        -1.630673         1.663390         2.494938
 H        -1.722379         0.099067         1.797489
 H         0.541182         3.096574         0.831126
 H         1.090810         2.817135         2.443974
 H         3.106279         2.107414         1.161604
 H         0.201781        -2.087966         0.785859
 H        -0.539095        -0.940228        -0.577063
 H         1.308031        -1.582724        -0.459684
 H         1.952656        -0.363302         3.912638
