19
Iteration:  3585
 C        -1.238986         0.811674         2.237367
 C         0.179446         0.986644         1.731720
 C         0.904459         2.337666         1.490053
 C         2.175512         1.458037         1.123920
 O         1.804167         0.774002        -0.064250
 C         0.934878        -0.048178         0.809530
 C         0.491980        -1.310402         0.265674
 C         1.530267         0.296931         2.117925
 O         2.058507        -0.650897         2.984778
 H        -1.358100         0.866867         3.392553
 H        -1.734375         1.672173         1.913449
 H        -1.919722         0.037076         1.881918
 H         0.502704         3.006482         0.817729
 H         1.101115         2.781251         2.409415
 H         3.245511         1.725009         1.018949
 H         0.414796        -2.136291         0.913653
 H        -0.588630        -1.166420        -0.069823
 H         1.210128        -1.597867        -0.496492
 H         2.151941        -0.308522         3.880662
