19
Iteration:   469charge 0 multiplicity 1
 C        -1.140477         0.804427         2.483013
 C         0.194272         0.983916         1.744506
 C         0.889678         2.267688         1.406785
 C         2.278490         1.502183         1.260755
 O         1.930355         0.787629        -0.082987
 C         0.907081        -0.088011         0.690615
 C         0.401242        -1.371545         0.272756
 C         1.490596         0.339467         1.963753
 O         1.956962        -0.552607         2.917861
 H        -1.504881         1.620781         3.204436
 H        -1.880985         0.752170         1.597964
 H        -1.233750        -0.155101         3.055828
 H         0.608376         2.910802         0.547040
 H         0.707002         2.850311         2.372245
 H         3.315824         1.899775         1.368817
 H         0.020866        -1.942976         1.255974
 H        -0.563883        -1.155478        -0.412260
 H         1.131051        -1.994927        -0.279253
 H         1.518310        -0.559027         3.762758
