19
Iteration:  4929charge 0 multiplicity 1
 C        -1.160977         0.767548         2.530314
 C         0.217586         0.946526         1.725701
 C         0.849024         2.297676         1.517340
 C         2.231501         1.570387         0.998020
 O         1.818228         0.751029        -0.120377
 C         0.970145         0.020828         0.707703
 C         0.491643        -1.261493         0.202501
 C         1.578711         0.216119         2.021715
 O         1.818867        -0.593098         3.122712
 H        -1.025619         1.108655         3.494912
 H        -1.977894         1.169054         2.056704
 H        -1.367277        -0.325623         2.519239
 H         0.534038         3.093995         0.963228
 H         0.997493         2.725152         2.531869
 H         3.095755         2.122871         0.807526
 H         0.296259        -1.101573        -0.857566
 H         1.440856        -1.993282         0.053504
 H        -0.430938        -1.730345         0.639409
 H         2.659242        -1.042475         3.023254
