19
Iteration:  3791charge 0 multiplicity 1
 C        -1.142765         0.817345         2.229534
 C         0.253629         1.009209         1.824633
 C         0.901092         2.284030         1.574221
 C         2.142128         1.501426         1.127990
 O         1.721368         0.761860        -0.095299
 C         0.947333        -0.037970         0.703854
 C         0.407884        -1.310560         0.243053
 C         1.574106         0.283869         2.119399
 O         2.050282        -0.635927         2.994712
 H        -1.270240         1.249359         3.227020
 H        -1.656601         1.371866         1.448126
 H        -1.340972        -0.305326         2.137212
 H         0.562289         3.196010         0.821803
 H         1.194315         2.687747         2.558521
 H         3.119411         1.978851         1.036852
 H         0.257141        -1.935739         1.081755
 H        -0.477019        -1.265476        -0.482912
 H         1.241510        -1.837800        -0.208963
 H         1.579061        -0.483080         3.823735
