19
Iteration:  2845charge 0 multiplicity 1
 C        -1.111535         0.688938         2.215520
 C         0.251102         1.010771         1.831126
 C         0.953486         2.279661         1.441786
 C         2.137974         1.352374         1.236287
 O         1.880487         0.694986        -0.036519
 C         0.835925         0.000511         0.733777
 C         0.127065        -1.202809         0.127847
 C         1.563366         0.234491         2.080780
 O         2.151736        -0.360005         3.156321
 H        -1.426734         0.831567         3.224180
 H        -1.780219         1.270587         1.477945
 H        -1.305058        -0.378986         1.902513
 H         0.597520         2.865025         0.598734
 H         0.948070         2.939200         2.334090
 H         3.263623         1.849253         1.448101
 H        -0.463781        -1.920276         0.745612
 H        -0.405317        -0.855950        -0.741196
 H         0.973322        -1.822142        -0.202962
 H         2.556224        -1.254620         3.011486
