19
Iteration:  4930charge 0 multiplicity 1
 C        -1.167257         0.760533         2.531543
 C         0.216837         0.943385         1.727828
 C         0.851028         2.300798         1.520171
 C         2.228194         1.569685         0.982653
 O         1.822455         0.756172        -0.115209
 C         0.964340         0.014526         0.699638
 C         0.498511        -1.263397         0.207052
 C         1.578843         0.213252         2.023562
 O         1.817363        -0.591168         3.123351
 H        -1.041061         1.110667         3.508001
 H        -1.997387         1.206120         2.071289
 H        -1.350994        -0.319926         2.495525
 H         0.556796         3.091615         0.996358
 H         0.996973         2.750373         2.520540
 H         3.165641         2.109473         0.781634
 H         0.318600        -1.074384        -0.837094
 H         1.401242        -1.931599         0.073266
 H        -0.440065        -1.747762         0.647787
 H         2.654004        -1.056264         3.011868
