19
Iteration:   769
 C        -1.201907         0.761515         2.296882
 C         0.149205         0.931191         1.662288
 C         0.890157         2.243047         1.606710
 C         2.250356         1.446961         1.246002
 O         1.941427         0.731951        -0.055978
 C         0.874286        -0.014309         0.702689
 C         0.174321        -1.289602         0.165716
 C         1.549845         0.361440         2.039469
 O         2.165706        -0.530332         3.007709
 H        -1.784641         1.707201         2.458485
 H        -1.958061         0.212031         1.674944
 H        -1.051012         0.233273         3.294280
 H         0.526555         2.965138         0.828503
 H         0.914074         2.695050         2.568951
 H         3.241251         1.679599         1.434764
 H        -0.420921        -1.908971         0.775556
 H        -0.431765        -1.029684        -0.684986
 H         1.099569        -1.856996        -0.252942
 H         2.480996         0.034649         3.741629
