19
Iteration:  4091
 C        -1.172337         0.814794         2.333995
 C         0.193229         0.945316         1.778391
 C         0.879352         2.255826         1.459464
 C         2.187278         1.550319         1.289532
 O         1.790521         0.672250        -0.071826
 C         0.959708         0.015128         0.735736
 C         0.357391        -1.279586         0.198653
 C         1.563923         0.228978         1.986532
 O         2.086411        -0.600414         3.004431
 H        -1.242010         1.155056         3.478917
 H        -1.626994         1.653572         1.722079
 H        -1.495791        -0.182663         2.079657
 H         0.546919         2.827644         0.570730
 H         0.885678         2.857530         2.355529
 H         3.174181         2.012005         1.214385
 H        -0.020396        -1.808533         1.059759
 H        -0.394826        -0.867729        -0.420984
 H         1.060238        -1.819218        -0.520370
 H         2.019426        -0.115061         3.857751
