19
Iteration:    40
 C        -1.062746         0.864167         2.415950
 C         0.255500         0.996601         1.698582
 C         0.910085         2.410778         1.428458
 C         2.155364         1.581861         1.036959
 O         1.715094         0.725906        -0.035674
 C         1.041158        -0.124109         0.792002
 C         0.609481        -1.377470         0.235594
 C         1.581157         0.253148         2.036600
 O         1.739527        -0.680183         3.044544
 H        -0.972801         1.287306         3.460854
 H        -1.798437         1.465072         1.795635
 H        -1.526943        -0.131941         2.560380
 H         0.486001         3.155584         0.674561
 H         1.019392         3.015461         2.348455
 H         3.179786         1.891860         0.877378
 H         0.367773        -2.050536         1.075529
 H        -0.287878        -1.349106        -0.497808
 H         1.479018        -1.869633        -0.282534
 H         1.450298        -0.171138         3.820710
