19
Iteration:   233charge 0 multiplicity 1
 C        -1.008746         0.768857         2.476117
 C         0.278019         0.976173         1.669253
 C         0.902952         2.361971         1.300270
 C         2.173631         1.479580         1.140882
 O         1.758408         0.706184        -0.068356
 C         0.896406        -0.050553         0.761641
 C         0.471081        -1.281150         0.094437
 C         1.552630         0.318175         2.123626
 O         1.878604        -0.586766         3.168350
 H        -0.953218         1.236474         3.444857
 H        -1.694767         1.447209         2.036834
 H        -1.294608        -0.340066         2.484967
 H         0.671567         2.936623         0.455817
 H         0.755269         3.019785         2.167538
 H         3.284593         1.667225         0.843728
 H         0.144216        -1.961448         1.037619
 H        -0.295091        -1.187403        -0.617911
 H         1.310207        -1.778037        -0.451104
 H         1.242414        -0.586821         3.912883
