19
Iteration:  2342charge 0 multiplicity 1
 C        -1.006689         0.804392         2.472204
 C         0.295005         0.959967         1.730876
 C         0.926873         2.313734         1.430790
 C         2.213594         1.555803         1.019187
 O         1.800526         0.816440        -0.039494
 C         0.898779        -0.066889         0.709221
 C         0.432420        -1.313646         0.154503
 C         1.547579         0.178982         2.059682
 O         1.830953        -0.631302         3.107362
 H        -0.851356         0.767951         3.491955
 H        -1.632938         1.717700         2.203902
 H        -1.682581        -0.038892         2.172735
 H         0.631630         2.895061         0.594860
 H         0.824433         2.884438         2.343985
 H         3.093262         2.042508         0.999930
 H         0.284548        -2.140163         0.912592
 H        -0.552522        -1.261948        -0.332617
 H         1.264194        -1.540280        -0.542748
 H         1.384167        -0.239326         3.858608
