19
Iteration:  3426charge 0 multiplicity 1
 C        -1.292611         0.669558         2.288219
 C         0.165706         1.025030         1.818917
 C         0.902894         2.251695         1.513140
 C         2.233316         1.366560         1.211538
 O         1.881811         0.746617        -0.021955
 C         0.946255        -0.052416         0.715167
 C         0.252429        -1.223756         0.076439
 C         1.550932         0.321129         2.011505
 O         2.201139        -0.400905         3.105470
 H        -1.432086         1.333111         3.067487
 H        -1.995477         0.684697         1.438520
 H        -1.464694        -0.308987         2.830493
 H         0.673356         2.897757         0.733756
 H         1.239469         2.783112         2.290069
 H         3.269820         1.656567         1.355658
 H        -0.810564        -1.317346         0.545244
 H         0.022802        -0.959727        -0.930522
 H         0.902612        -2.113697         0.296345
 H         1.728865        -1.229026         3.131117
