19
Iteration:  1079
 C        -1.120049         0.728814         2.421072
 C         0.236543         0.945509         1.774882
 C         1.029580         2.306136         1.675707
 C         2.164972         1.466476         1.150535
 O         1.796044         0.837093        -0.082730
 C         0.920713        -0.072685         0.707769
 C         0.284140        -1.168877         0.007516
 C         1.501269         0.156984         2.032633
 O         2.050692        -0.600075         3.027526
 H        -1.582514         1.572060         2.950342
 H        -1.798278         0.624859         1.591631
 H        -1.207471        -0.180996         2.969193
 H         0.800258         2.859334         0.832281
 H         1.257607         2.790169         2.605033
 H         3.277555         1.757727         1.211251
 H        -0.521743        -1.600429         0.543529
 H        -0.158081        -0.657288        -0.874412
 H         0.943935        -1.840807        -0.406759
 H         1.795077        -0.227130         3.927090
