19
Iteration:  2037
 C        -1.194323         0.676389         2.255819
 C         0.221814         0.965599         1.753612
 C         0.890138         2.227350         1.481071
 C         2.215802         1.421485         1.213388
 O         1.867027         0.819282        -0.054280
 C         0.910007        -0.049466         0.830494
 C         0.203437        -1.126034         0.176742
 C         1.620443         0.332249         2.104254
 O         2.138183        -0.648960         2.955574
 H        -1.742848         0.463621         1.417278
 H        -1.217140        -0.153230         3.013281
 H        -1.697148         1.528747         2.720240
 H         0.531961         2.924698         0.744055
 H         0.951425         2.822942         2.416975
 H         3.254356         1.879146         1.352450
 H        -0.741625        -1.318871         0.801972
 H        -0.253474        -0.686184        -0.655255
 H         0.871707        -1.935508        -0.192216
 H         2.119236        -0.384612         3.881543
