19
Iteration:  4255charge 0 multiplicity 1
 C        -1.145652         0.804709         2.120778
 C         0.257652         0.900259         1.858123
 C         0.844109         2.297497         1.513783
 C         2.195016         1.472899         1.156319
 O         1.797315         0.742769         0.027506
 C         0.872504         0.033133         0.767895
 C         0.288094        -1.242425         0.235516
 C         1.622923         0.254649         2.080412
 O         2.147845        -0.622389         2.974840
 H        -1.446951         1.400828         3.006698
 H        -1.776617         1.120260         1.283826
 H        -1.393811        -0.182650         2.351275
 H         0.311426         2.911326         0.759234
 H         0.780479         2.816647         2.440769
 H         3.139347         1.999140         0.965082
 H        -0.202069        -1.722718         1.117143
 H        -0.503527        -1.184960        -0.504972
 H         1.035820        -2.034455        -0.290682
 H         2.283267        -0.061565         3.751633
