19
Iteration:  3272
 C        -1.119214         0.675909         2.351398
 C         0.237923         0.982755         1.703999
 C         0.911654         2.312112         1.441959
 C         2.267716         1.471616         1.206303
 O         1.880419         0.733669        -0.024065
 C         0.973206        -0.099673         0.720223
 C         0.172728        -1.213919         0.081237
 C         1.569379         0.272848         2.063706
 O         2.071122        -0.450973         3.171912
 H        -1.332945         1.312119         3.148501
 H        -2.004470         0.836309         1.629322
 H        -1.169384        -0.332879         2.740888
 H         0.512428         2.823116         0.552405
 H         0.882808         2.866562         2.399113
 H         3.286461         1.897923         1.036668
 H        -0.406013        -1.915286         0.720314
 H        -0.545632        -0.680242        -0.537087
 H         0.689386        -1.926873        -0.650345
 H         1.275069        -0.976520         3.484888
