19
Iteration:  3864charge 0 multiplicity 1
 C        -1.252638         0.712408         2.286896
 C         0.146997         1.017341         1.755572
 C         0.917029         2.341778         1.466605
 C         2.162564         1.553810         1.280456
 O         1.857746         0.632567        -0.003457
 C         0.921579        -0.049610         0.797405
 C         0.271508        -1.275838         0.129690
 C         1.668586         0.318476         2.006296
 O         2.154652        -0.579351         2.977947
 H        -1.149603         0.577852         3.420443
 H        -1.975306         1.637007         2.025744
 H        -1.629552        -0.100779         1.551262
 H         0.398371         2.913215         0.741048
 H         1.001703         3.065470         2.322984
 H         3.204456         1.807373         1.346515
 H        -0.294458        -1.890654         0.928661
 H        -0.510261        -0.820619        -0.502244
 H         1.042487        -2.082210        -0.261341
 H         2.252147        -0.142214         3.867161
