19
Iteration:  1747
 C        -1.072355         0.712536         2.415694
 C         0.204557         0.922501         1.716530
 C         0.895679         2.323912         1.492600
 C         2.229473         1.500371         1.141034
 O         1.918902         0.758256        -0.102799
 C         0.902005         0.004796         0.679947
 C         0.412403        -1.344562         0.191549
 C         1.565888         0.318613         2.013106
 O         1.854753        -0.556328         3.074876
 H        -1.009819         0.369799         3.503589
 H        -1.609388         1.649211         2.631454
 H        -1.695225        -0.088894         2.012764
 H         0.558171         2.969256         0.626184
 H         0.796574         2.893006         2.368665
 H         3.184274         2.070839         1.068055
 H        -0.250462        -1.835988         0.959145
 H        -0.242640        -1.427901        -0.713642
 H         1.304771        -1.844568         0.065468
 H         1.494449        -0.003617         3.820259
