19
Iteration:  2065
 C        -1.186788         0.662458         2.182621
 C         0.296840         1.036004         1.929808
 C         0.889385         2.305243         1.521792
 C         2.193005         1.467381         1.218910
 O         1.831360         0.763295        -0.031983
 C         0.873402        -0.108940         0.786727
 C         0.149023        -1.106878         0.097417
 C         1.604320         0.175554         2.010132
 O         2.226927        -0.621930         3.068102
 H        -1.600112         0.486152         1.046169
 H        -1.393687        -0.084367         2.934148
 H        -1.838207         1.545907         2.408092
 H         0.459577         2.865915         0.633941
 H         1.014688         3.042791         2.359024
 H         3.156367         2.093111         1.272194
 H        -0.567344        -1.497085         0.782684
 H        -0.395991        -0.567671        -0.787907
 H         0.775103        -1.934454        -0.368852
 H         2.197067        -0.150317         3.890665
