19
Iteration:  4021
 C        -1.252027         0.754935         2.240179
 C         0.223125         0.916436         1.817645
 C         0.932707         2.248310         1.568627
 C         2.274666         1.471953         1.201751
 O         1.881972         0.797713        -0.065081
 C         0.897829        -0.009205         0.758967
 C         0.197803        -1.300449         0.232990
 C         1.583777         0.358727         2.054984
 O         2.135533        -0.566189         2.933016
 H        -1.742986         1.575894         2.806477
 H        -1.718780         0.702379         1.179833
 H        -1.386916        -0.272120         2.834196
 H         0.527203         2.724210         0.714852
 H         1.029857         2.822449         2.468958
 H         3.301454         1.910803         1.330622
 H        -0.344951        -1.850093         1.069677
 H        -0.584529        -1.091442        -0.642536
 H         0.833897        -2.021377        -0.273987
 H         2.079494        -0.249620         3.829604
