19
Iteration:  1264
 C        -1.080767         0.694893         2.404604
 C         0.236854         0.974584         1.728176
 C         0.924318         2.283670         1.582367
 C         2.152065         1.479996         1.228828
 O         1.940012         0.763362        -0.031294
 C         0.877967        -0.043200         0.694136
 C         0.233251        -1.185495        -0.019935
 C         1.534566         0.226722         1.992627
 O         2.040607        -0.552173         3.067908
 H        -0.973533         0.292303         3.454987
 H        -1.658106         1.604680         2.485084
 H        -1.585868        -0.075230         1.874114
 H         0.632319         2.835447         0.664420
 H         1.102858         2.851490         2.457155
 H         3.196631         1.791278         1.520977
 H        -0.209647        -1.784524         0.748206
 H        -0.530967        -0.685598        -0.701833
 H         0.832845        -1.818862        -0.595459
 H         1.529922        -0.323477         3.882427
