19
Iteration:  2062
 C        -1.198907         0.644224         2.168292
 C         0.307542         1.012366         1.937594
 C         0.913850         2.324278         1.510412
 C         2.191865         1.507662         1.248207
 O         1.818653         0.755792        -0.015444
 C         0.905883        -0.103759         0.773521
 C         0.145256        -1.119165         0.097964
 C         1.596569         0.164300         2.033359
 O         2.220488        -0.621682         3.041646
 H        -1.645247         0.482875         1.100562
 H        -1.399488        -0.048342         2.986874
 H        -1.780947         1.550091         2.432840
 H         0.503575         2.829674         0.641099
 H         0.985795         3.133163         2.208089
 H         3.087841         1.970592         1.113693
 H        -0.651028        -1.378704         0.752686
 H        -0.446623        -0.651638        -0.795641
 H         0.768034        -1.798619        -0.296174
 H         2.178590        -0.163024         3.922105
