19
Iteration:  2496
 C        -1.222283         0.748220         2.347558
 C         0.179143         1.047407         1.789755
 C         0.992647         2.359099         1.578757
 C         2.156702         1.399283         1.214186
 O         1.883150         0.706878        -0.031087
 C         0.886384        -0.080638         0.742155
 C         0.289904        -1.293518         0.043240
 C         1.508303         0.283706         2.004462
 O         2.150759        -0.511083         2.986690
 H        -1.766890         1.682541         2.402606
 H        -1.907594         0.054410         1.707100
 H        -1.189010         0.288881         3.387813
 H         0.703067         3.082726         0.794395
 H         1.351454         2.878369         2.494457
 H         3.188301         1.636502         1.200105
 H        -0.514032        -1.692924         0.830626
 H        -0.214695        -0.993132        -0.930039
 H         1.032345        -2.156674         0.006840
 H         1.849757        -0.234786         3.879556
