19
Iteration:  3063charge 0 multiplicity 1
 C        -1.159278         0.778341         2.254872
 C         0.245742         0.926798         1.709474
 C         0.909374         2.263260         1.461314
 C         2.205030         1.379421         1.248827
 O         1.919160         0.715960        -0.019796
 C         0.871905        -0.046772         0.706390
 C         0.123795        -1.250205         0.102045
 C         1.543297         0.273236         2.049002
 O         2.106647        -0.452224         3.173077
 H        -1.273011         1.353276         3.127262
 H        -2.007425         0.975785         1.506716
 H        -1.330468        -0.236336         2.627570
 H         0.751450         3.090612         0.630870
 H         0.971954         2.819884         2.487331
 H         3.231454         1.966001         1.458986
 H        -0.304470        -1.825598         0.928159
 H        -0.654588        -0.955540        -0.624474
 H         0.874410        -1.927487        -0.381094
 H         3.008913        -0.131075         3.116799
