19
Iteration:  2816
 C        -1.179070         0.775948         2.308177
 C         0.228070         0.895937         1.760370
 C         0.918328         2.227220         1.444861
 C         2.197453         1.483746         1.108151
 O         1.823780         0.744893        -0.100751
 C         1.048859        -0.133412         0.747699
 C         0.182720        -1.159438         0.115652
 C         1.684332         0.265857         2.128970
 O         1.996052        -0.472671         3.241725
 H        -1.494389         1.532179         3.065034
 H        -1.850895         0.964340         1.484636
 H        -1.274759        -0.264820         2.702817
 H         0.469455         2.931781         0.652689
 H         0.923805         2.617470         2.462233
 H         3.055595         1.959557         1.090274
 H        -0.557464        -1.674024         0.730991
 H        -0.377256        -0.547834        -0.708670
 H         0.768832        -1.896588        -0.523103
 H         2.813512        -1.005920         3.139977
