19
Iteration:  1526
 C        -1.130884         0.752534         2.337378
 C         0.162644         0.945760         1.650221
 C         0.911570         2.289700         1.524281
 C         2.126252         1.403110         1.289469
 O         1.889081         0.738685        -0.036532
 C         0.941745        -0.080233         0.732823
 C         0.277368        -1.258831         0.038439
 C         1.499024         0.262658         2.095564
 O         2.152878        -0.458428         3.051461
 H        -1.790030         1.668009         2.400935
 H        -1.618600         0.002600         1.681622
 H        -1.165375         0.345031         3.314364
 H         0.733633         2.941641         0.636220
 H         0.811931         2.647555         2.489059
 H         3.113806         1.927959         1.351711
 H        -0.460559        -1.691096         0.752161
 H        -0.071370        -0.824863        -0.982773
 H         0.838715        -2.131254        -0.072649
 H         2.049466         0.093489         3.880019
