19
Iteration:  4662charge 0 multiplicity 1
 C        -1.122046         0.646327         2.258805
 C         0.299945         0.963220         1.839484
 C         0.935396         2.319618         1.500429
 C         2.176484         1.507888         1.130396
 O         1.758682         0.782379        -0.059323
 C         0.946245        -0.025278         0.753233
 C         0.137619        -1.312903         0.060536
 C         1.585904         0.268140         2.073421
 O         2.089324        -0.467729         3.203784
 H        -1.478091         1.123597         3.169336
 H        -1.896376         0.715786         1.465585
 H        -0.942077        -0.336524         2.581592
 H         0.561966         2.750755         0.564989
 H         0.972655         2.959282         2.345949
 H         3.177801         1.939150         1.119253
 H         0.382769        -1.183305        -0.996267
 H         0.530378        -2.307393         0.424371
 H        -0.887188        -1.297468         0.216661
 H         3.050934        -0.554137         3.121171
