19
Iteration:  4344charge 0 multiplicity 1
 C        -1.098753         0.758798         2.532806
 C         0.249034         0.909800         1.765804
 C         0.834714         2.315206         1.329020
 C         2.116646         1.543501         1.106872
 O         1.954902         0.759868        -0.057472
 C         1.058249        -0.119874         0.722595
 C         0.380410        -1.181539         0.106883
 C         1.534457         0.246181         2.047807
 O         1.853221        -0.663463         3.112501
 H        -0.892922         1.177645         3.522912
 H        -1.853029         1.378325         2.135000
 H        -1.430077        -0.230039         2.628823
 H         0.556133         2.913000         0.448788
 H         1.115876         3.064911         2.023184
 H         2.948293         2.303453         0.952556
 H         0.122375        -1.953439         0.869451
 H        -0.491670        -0.767397        -0.314049
 H         1.043369        -1.704425        -0.689540
 H         1.614672        -0.159919         3.908908
