19
Iteration:   277charge 0 multiplicity 1
 C        -1.150943         0.767909         2.364653
 C         0.155634         0.977155         1.749636
 C         0.922804         2.360469         1.508346
 C         2.230635         1.472073         1.224684
 O         1.916762         0.725909        -0.102159
 C         0.977983        -0.044100         0.608307
 C         0.354773        -1.413385         0.294963
 C         1.464052         0.278306         1.948177
 O         1.909486        -0.474913         3.039460
 H        -1.139627         0.931863         3.460469
 H        -1.754639         1.628746         2.058889
 H        -1.704087        -0.239837         2.241185
 H         0.494593         2.971524         0.765898
 H         0.979837         3.041449         2.374698
 H         3.414077         1.743495         1.315417
 H         0.138759        -2.029654         1.337541
 H        -0.480228        -1.428684        -0.352125
 H         1.141697        -2.029227        -0.271389
 H         2.782711        -0.143883         3.387758
