19
Iteration:    94
 C        -1.121946         0.770790         2.382390
 C         0.146176         1.004738         1.657953
 C         0.920217         2.266987         1.409148
 C         2.186393         1.490458         1.276667
 O         1.927334         0.735811        -0.102427
 C         0.928715        -0.047318         0.697860
 C         0.368398        -1.343722         0.261707
 C         1.471294         0.298452         2.040075
 O         2.007230        -0.542503         3.024535
 H        -1.140554         1.240139         3.449702
 H        -2.069261         1.200375         1.880874
 H        -1.256935        -0.345582         2.559531
 H         0.641418         2.914816         0.497765
 H         0.869033         2.997471         2.266553
 H         3.188101         1.854266         1.369001
 H        -0.161775        -1.851691         1.138278
 H        -0.444935        -1.088856        -0.539692
 H         1.065076        -2.102481        -0.188581
 H         2.127204         0.043066         3.803943
