19
Iteration:  2110
 C        -1.148344         0.772211         2.369720
 C         0.190360         0.972220         1.702002
 C         0.943838         2.273200         1.566874
 C         2.150211         1.416651         1.246168
 O         1.872096         0.820701        -0.051762
 C         0.911431        -0.046169         0.702509
 C         0.247471        -1.269367         0.087644
 C         1.618245         0.207032         2.001365
 O         2.060791        -0.538000         3.044223
 H        -2.029345         0.978332         1.587674
 H        -1.093254        -0.286064         2.682173
 H        -1.416864         1.311538         3.305301
 H         0.653036         3.129808         0.890050
 H         1.131532         2.781939         2.554486
 H         3.311540         1.611131         1.253607
 H        -0.193104        -1.981002         0.836554
 H        -0.589035        -0.988484        -0.559732
 H         1.009727        -1.801904        -0.624810
 H         1.893331         0.052934         3.785389
