19
Iteration:   139
 C        -1.205041         0.679212         2.137515
 C         0.266913         0.986356         1.944466
 C         0.902142         2.243998         1.456099
 C         2.170052         1.399866         1.033238
 O         1.787944         0.727951        -0.159450
 C         1.028308        -0.075260         0.823702
 C         0.220550        -1.114011         0.169239
 C         1.534851         0.196807         2.179380
 O         2.208377        -0.463690         3.206548
 H        -1.780531         1.385029         2.867341
 H        -1.711486         0.725692         1.074590
 H        -1.307583        -0.325455         2.554304
 H         0.381165         2.764763         0.565182
 H         1.024109         3.087061         2.168120
 H         3.137848         1.818353         1.075284
 H        -0.657512        -1.445280         0.643859
 H        -0.074975        -0.697143        -0.905398
 H         0.842836        -2.055426         0.018289
 H         1.762410        -0.051677         3.979192
