19
Iteration:  3650
 C        -1.226157         0.692564         2.274799
 C         0.138331         0.979723         1.658011
 C         0.891254         2.300002         1.545157
 C         2.188738         1.454217         1.179652
 O         1.871567         0.703152        -0.073980
 C         0.949891        -0.012761         0.694360
 C         0.247684        -1.211901         0.158046
 C         1.586400         0.220094         2.044539
 O         2.220394        -0.462627         3.152431
 H        -1.289737         1.283759         3.289052
 H        -1.975969         1.097424         1.603520
 H        -1.291875        -0.429134         2.437242
 H         0.570099         3.109947         0.901357
 H         0.939911         2.619707         2.532693
 H         3.266179         1.567405         1.216951
 H        -0.471191        -1.444137         0.931644
 H        -0.292391        -0.825561        -0.830859
 H         0.902633        -2.085424        -0.005031
 H         1.428214        -0.562112         3.719562
