19
Iteration:  1768
 C        -1.035454         0.776664         2.386213
 C         0.215372         1.009671         1.699117
 C         0.921854         2.350940         1.389310
 C         2.137556         1.490720         1.095973
 O         1.740703         0.785044        -0.050129
 C         1.016933        -0.038987         0.786198
 C         0.591958        -1.344248         0.209704
 C         1.543571         0.274698         2.065133
 O         1.778915        -0.631574         3.024989
 H        -0.854353         0.428683         3.507666
 H        -1.601459         1.659453         2.683983
 H        -1.636027        -0.048760         2.128482
 H         0.521487         3.033429         0.553930
 H         1.194298         2.934951         2.255447
 H         3.167625         1.854637         1.282215
 H        -0.098942        -1.902478         0.938045
 H        -0.196407        -1.114278        -0.624436
 H         1.330595        -1.945269        -0.168952
 H         1.707966        -0.348715         3.965555
