19
Iteration:  1861charge 0 multiplicity 1
 C        -1.199312         0.675737         2.130259
 C         0.247688         0.949868         1.885781
 C         0.865227         2.307101         1.493404
 C         2.180707         1.459389         1.245260
 O         1.789651         0.680779        -0.113811
 C         0.959703        -0.017282         0.767204
 C         0.251984        -1.122665         0.150213
 C         1.600713         0.234277         2.034738
 O         2.189549        -0.540244         3.118688
 H        -1.641271         1.263907         2.923885
 H        -1.768620         1.130572         1.257360
 H        -1.252506        -0.414686         2.471922
 H         0.389470         2.825518         0.716006
 H         0.976859         2.944986         2.404984
 H         3.276802         1.771446         1.323790
 H        -0.407304        -1.581440         0.882894
 H        -0.439529        -0.793454        -0.563811
 H         0.910433        -1.971546        -0.178373
 H         1.975587        -0.024705         3.910570
