19
Iteration:  1397charge 0 multiplicity 1
 C        -1.160393         0.817656         2.398001
 C         0.244017         0.939795         1.775593
 C         0.960601         2.321492         1.504477
 C         2.225154         1.501160         1.085995
 O         1.796543         0.840256        -0.021995
 C         0.894782         0.006647         0.748112
 C         0.557691        -1.293753         0.148223
 C         1.572191         0.292516         2.080166
 O         1.821946        -0.757306         2.964810
 H        -1.809418        -0.003003         2.042035
 H        -1.111932         0.552463         3.468618
 H        -1.730616         1.744842         2.340761
 H         0.649978         2.995454         0.669270
 H         0.814622         2.947945         2.351191
 H         3.287770         1.846602         0.729050
 H         0.115607        -1.850269         1.046491
 H        -0.323997        -1.198522        -0.502430
 H         1.351652        -1.686153        -0.316310
 H         1.886471        -0.465434         3.904032
