19
Iteration:  1424charge 0 multiplicity 1
 C        -1.099337         0.750490         2.397603
 C         0.219222         1.011601         1.776635
 C         0.964456         2.347253         1.517088
 C         2.134530         1.480384         1.244517
 O         1.928859         0.766812        -0.098053
 C         0.881904        -0.005919         0.700590
 C         0.427592        -1.332312         0.184372
 C         1.480901         0.291267         1.969668
 O         1.903435        -0.633912         2.970956
 H        -1.941114         0.279072         1.855647
 H        -0.827969         0.055623         3.216597
 H        -1.728807         1.598362         2.772984
 H         0.697842         3.141931         0.803867
 H         0.926945         2.981893         2.463610
 H         3.161999         1.603567         1.301110
 H         0.227073        -1.997758         0.989414
 H        -0.475133        -1.124634        -0.429339
 H         1.313384        -1.716323        -0.572516
 H         1.775485        -0.221289         3.846388
