19
Iteration:  1166
 C        -1.161175         0.732792         2.349137
 C         0.220494         1.002681         1.763850
 C         0.910917         2.353882         1.545295
 C         2.173133         1.442796         1.266648
 O         1.944447         0.790311        -0.019012
 C         0.865503         0.083145         0.690599
 C         0.272841        -1.183316         0.136599
 C         1.527028         0.232830         2.035578
 O         2.046079        -0.764262         2.898435
 H        -1.433510         1.632217         2.937190
 H        -1.881111         0.607353         1.575015
 H        -1.136846        -0.099604         3.003519
 H         0.416096         3.085133         0.842735
 H         1.237338         2.927822         2.429531
 H         3.299156         1.635729         1.469959
 H        -0.186601        -1.732092         1.007851
 H        -0.463625        -0.880278        -0.723088
 H         1.017878        -1.912205        -0.189710
 H         2.138765        -0.421842         3.824236
