19
Iteration:  1113charge 0 multiplicity 1
 C        -1.170104         0.741532         2.210204
 C         0.296143         0.908967         1.872117
 C         0.947114         2.210342         1.626207
 C         2.180607         1.490692         1.159779
 O         1.804070         0.826759        -0.042829
 C         0.857408        -0.017133         0.786091
 C         0.164614        -1.056840         0.029137
 C         1.609860         0.157206         2.087313
 O         2.166828        -0.686792         3.037796
 H        -1.589915         1.731763         2.449356
 H        -1.656344         0.327071         1.336085
 H        -1.394188         0.087432         3.028762
 H         0.705162         2.876614         0.864124
 H         0.973561         2.899632         2.460184
 H         3.198596         1.969956         0.943289
 H        -0.776419        -1.476175         0.513887
 H        -0.106407        -0.635926        -0.915578
 H         0.771862        -1.857401        -0.010784
 H         2.276819        -0.147791         3.874741
