19
Iteration:  4698
 C        -1.136405         0.722723         2.461177
 C         0.126443         0.985850         1.717168
 C         0.948898         2.201655         1.575335
 C         2.188645         1.544652         1.135522
 O         1.914961         0.744105        -0.127406
 C         0.897982        -0.022876         0.683846
 C         0.376756        -1.301701         0.248088
 C         1.541621         0.316739         2.017682
 O         1.942123        -0.484233         3.009826
 H        -1.175128         1.260785         3.476123
 H        -2.073871         0.983909         1.887625
 H        -1.313065        -0.453292         2.511294
 H         0.374269         2.811185         0.821284
 H         0.969163         2.990626         2.483378
 H         3.234191         1.857425         1.296302
 H         0.286723        -1.273239        -0.843039
 H         0.975477        -2.262660         0.489148
 H        -0.640384        -1.476440         0.451329
 H         2.877298        -0.712693         2.947164
