19
Iteration:  1744charge 0 multiplicity 1
 C        -1.114986         0.698880         2.391603
 C         0.205610         0.920967         1.715280
 C         0.891715         2.339410         1.502556
 C         2.229057         1.493138         1.126676
 O         1.931523         0.755315        -0.085428
 C         0.910422         0.020017         0.684140
 C         0.396684        -1.335750         0.193686
 C         1.593626         0.270762         1.994514
 O         1.865255        -0.522670         3.070241
 H        -1.011693         0.352587         3.541443
 H        -1.599360         1.622473         2.698636
 H        -1.766668        -0.113293         2.162700
 H         0.565402         2.949580         0.578043
 H         0.835544         2.982880         2.441242
 H         3.211501         2.053908         1.160532
 H        -0.288549        -1.831945         0.974813
 H        -0.290795        -1.434786        -0.773317
 H         1.286500        -1.944970         0.057257
 H         1.525907        -0.006561         3.798971
