19
Iteration:   361
 C        -1.256871         0.733683         2.259571
 C         0.150207         0.935154         1.751442
 C         0.889960         2.292402         1.484350
 C         2.142918         1.471927         1.255045
 O         1.892008         0.693555        -0.034921
 C         0.960126        -0.124466         0.775196
 C         0.227974        -1.218832         0.079519
 C         1.635892         0.229699         2.039918
 O         2.233933        -0.372385         3.108856
 H        -1.549870         1.579301         2.821553
 H        -1.862022         0.487850         1.371765
 H        -1.314061        -0.161742         2.908481
 H         0.528480         2.713266         0.519177
 H         0.923250         2.994146         2.378821
 H         3.244101         1.738509         1.161785
 H        -0.664495        -1.521341         0.704034
 H        -0.206442        -0.785001        -0.802964
 H         0.784715        -2.069684        -0.080985
 H         1.671884        -0.703691         3.808022
