19
Iteration:  1449charge 0 multiplicity 1
 C        -1.138028         0.652217         2.340722
 C         0.199236         0.943122         1.666962
 C         0.951078         2.214153         1.474828
 C         2.245192         1.482035         1.285108
 O         1.900199         0.782706        -0.045144
 C         0.937709         0.018018         0.698938
 C         0.238273        -1.246486         0.139311
 C         1.570264         0.311275         2.006428
 O         1.995396        -0.538047         3.060985
 H        -2.106936         0.775612         1.753704
 H        -1.115656        -0.310469         2.877158
 H        -1.385296         1.434349         3.043978
 H         0.436350         3.034061         0.827703
 H         1.091411         2.754529         2.414564
 H         3.286291         1.837139         1.299372
 H         0.006759        -1.861030         1.026887
 H        -0.729712        -0.989876        -0.500794
 H         0.975491        -1.795182        -0.470789
 H         1.732285        -0.045645         3.830239
