19
Iteration:  1951charge 0 multiplicity 1
 C        -1.024784         0.796625         2.503502
 C         0.213354         0.989138         1.729491
 C         0.936973         2.302979         1.518651
 C         2.149564         1.557450         1.166707
 O         1.844595         0.778855        -0.131613
 C         0.906709        -0.022284         0.782792
 C         0.461929        -1.345729         0.039992
 C         1.528986         0.235019         2.006485
 O         1.873275        -0.630525         3.049036
 H        -1.687427         1.759904         2.508580
 H        -1.791864         0.020441         2.124789
 H        -0.868154         0.627879         3.592629
 H         0.495673         2.817417         0.675694
 H         1.094463         2.915953         2.438228
 H         3.174211         1.972129         1.185588
 H         0.160769        -2.156550         0.797055
 H        -0.282639        -1.040217        -0.754243
 H         1.312488        -1.781547        -0.383034
 H         1.390650        -0.427569         3.866450
