19
Iteration:   597charge 0 multiplicity 1
 C        -1.074181         0.724441         2.427573
 C         0.240546         1.000635         1.868049
 C         0.845107         2.275097         1.384098
 C         2.170099         1.390583         1.137309
 O         1.946282         0.744554        -0.128791
 C         0.949405        -0.025443         0.708036
 C         0.342679        -1.276433         0.150193
 C         1.552737         0.306523         2.024255
 O         1.930474        -0.538862         3.110074
 H        -0.999249         0.391851         3.479686
 H        -1.661705         1.612143         2.427822
 H        -1.730473         0.094438         1.894907
 H         0.448684         2.797079         0.472447
 H         1.039034         3.038533         2.125764
 H         3.073834         2.024900         1.220684
 H        -0.248024        -1.596541         0.910256
 H        -0.383789        -1.036288        -0.621679
 H         1.031171        -2.149709        -0.201739
 H         1.650409         0.024543         3.903161
