19
Iteration:  4041
 C        -1.249451         0.754403         2.110668
 C         0.197127         0.973241         1.742279
 C         0.973372         2.344475         1.577028
 C         2.141646         1.401342         1.228281
 O         1.756080         0.769482        -0.032815
 C         0.917777        -0.052187         0.752253
 C         0.248388        -1.203517         0.306410
 C         1.574168         0.216353         2.046069
 O         2.223393        -0.586649         2.959254
 H        -1.494904         1.379048         2.915997
 H        -1.800767         0.951249         1.207366
 H        -1.223432        -0.280637         2.479789
 H         0.738950         3.097199         0.823014
 H         1.073826         2.836841         2.602088
 H         3.160336         1.772416         1.309951
 H        -0.020294        -1.705578         1.241630
 H        -0.534706        -1.095880        -0.505798
 H         1.087664        -1.718042        -0.161971
 H         2.264404        -0.134036         3.813419
