19
Iteration:  3536charge 0 multiplicity 1
 C        -1.124640         0.674267         2.373444
 C         0.149327         0.986172         1.642107
 C         0.881322         2.268924         1.428653
 C         2.193067         1.446590         1.183644
 O         1.923606         0.779673        -0.094363
 C         0.981906        -0.002059         0.714629
 C         0.336093        -1.208059         0.178820
 C         1.588480         0.377514         2.079838
 O         1.893813        -0.591603         3.094507
 H        -1.004086         0.978776         3.393531
 H        -2.234205         0.934223         2.045504
 H        -1.201217        -0.490532         2.504336
 H         0.700762         3.010768         0.584574
 H         0.990408         2.777327         2.430298
 H         3.252306         1.665360         1.336017
 H         0.180540        -2.010015         1.038710
 H        -0.727050        -1.083939        -0.150612
 H         0.987926        -1.793816        -0.531225
 H         2.464694        -0.270391         3.833053
