19
Iteration:  1405charge 0 multiplicity 1
 C        -1.145426         0.786762         2.449072
 C         0.198146         0.982285         1.760932
 C         0.921840         2.343849         1.525668
 C         2.295630         1.457963         1.127402
 O         1.778755         0.795681        -0.018366
 C         0.943549        -0.007989         0.736925
 C         0.512344        -1.304826         0.155261
 C         1.556918         0.304741         2.043862
 O         1.818364        -0.678912         2.935313
 H        -1.815635         0.156406         1.754351
 H        -1.084103         0.373646         3.460511
 H        -1.721504         1.701367         2.361821
 H         0.766347         3.017487         0.577984
 H         1.064099         2.984076         2.414473
 H         3.173112         2.076674         1.019894
 H         0.365649        -1.986898         0.967032
 H        -0.356281        -1.202336        -0.613755
 H         1.341828        -1.835981        -0.371838
 H         1.867369        -0.666506         3.875109
