19
Iteration:  2710charge 0 multiplicity 1
 C        -1.109471         0.769528         2.381444
 C         0.231647         0.979132         1.773597
 C         0.939144         2.320761         1.520001
 C         2.187348         1.461956         1.165933
 O         1.791539         0.773149        -0.088584
 C         0.998180        -0.042991         0.720158
 C         0.306107        -1.248580         0.075579
 C         1.587539         0.281532         2.045417
 O         2.006087        -0.587603         3.092608
 H        -1.938613         1.060250         1.660826
 H        -1.284948        -0.188818         2.814882
 H        -1.209399         1.456848         3.202935
 H         0.585400         3.024996         0.792930
 H         1.059920         2.803863         2.451215
 H         3.351012         1.790719         1.201754
 H        -0.359324        -1.572832         0.833581
 H        -0.351964        -1.018707        -0.744348
 H         0.944878        -2.099677        -0.133331
 H         1.319364        -1.236539         3.377020
