19
Iteration:   812
 C        -1.078568         0.751957         2.436047
 C         0.296437         0.948206         1.845345
 C         0.969078         2.327532         1.416135
 C         2.247825         1.529960         1.177030
 O         1.747470         0.821996        -0.149557
 C         0.928530        -0.042709         0.800446
 C         0.385516        -1.293784         0.024029
 C         1.605062         0.287135         2.088980
 O         1.883368        -0.648058         3.058550
 H        -1.909922         1.432004         2.001193
 H        -1.436934        -0.348034         2.387733
 H        -0.955077         0.972618         3.587753
 H         0.511761         2.968637         0.624850
 H         0.921574         2.952917         2.277884
 H         3.123899         2.047001         1.120085
 H        -0.043838        -1.997260         0.782838
 H        -0.464457        -1.095258        -0.599760
 H         1.199205        -2.040386        -0.335211
 H         1.274859        -0.532489         3.856876
