19
Iteration:  2940
 C        -1.015414         0.769797         2.484517
 C         0.201088         1.010150         1.687763
 C         0.913183         2.326815         1.485668
 C         2.159834         1.412545         1.130804
 O         1.883856         0.691744        -0.086048
 C         0.905892        -0.034983         0.755065
 C         0.427873        -1.322351         0.143437
 C         1.504882         0.387452         2.057191
 O         1.785626        -0.526034         3.074540
 H        -0.782848         1.190700         3.487453
 H        -1.956372         1.249102         2.120328
 H        -1.276479        -0.261401         2.483323
 H         0.785613         3.186435         0.705958
 H         1.046827         3.012257         2.395279
 H         3.227075         1.693933         0.975722
 H        -0.033197        -2.015124         0.933431
 H        -0.247092        -1.152741        -0.768162
 H         1.311929        -1.903897        -0.149294
 H         2.589193        -0.998996         2.777423
