19
Iteration:  3335charge 0 multiplicity 1
 C        -1.090272         0.756761         2.384690
 C         0.172444         1.025414         1.678971
 C         0.979213         2.358459         1.537833
 C         2.184506         1.483863         1.192542
 O         1.871109         0.783585        -0.109682
 C         0.905465        -0.000388         0.679665
 C         0.380346        -1.455460         0.168904
 C         1.468358         0.241422         2.031903
 O         1.882860        -0.562744         3.104506
 H        -0.829284         1.022150         3.401347
 H        -1.881915         1.444149         1.927393
 H        -1.507654        -0.169667         2.429417
 H         0.774958         3.091517         0.846556
 H         1.046585         2.857139         2.424628
 H         3.233370         1.898723         1.234750
 H         0.203800        -2.149364         0.936670
 H        -0.540711        -1.276290        -0.394644
 H         1.215126        -1.740581        -0.469283
 H         2.768456        -0.192070         3.357500
