19
Iteration:  3458
 C        -1.085080         0.715343         2.272559
 C         0.197626         0.959860         1.688530
 C         0.864800         2.232893         1.597756
 C         2.215823         1.401423         1.283482
 O         1.849999         0.708066        -0.046688
 C         0.881216        -0.103951         0.711622
 C         0.175938        -1.233237        -0.001626
 C         1.558268         0.299980         2.057620
 O         2.198061        -0.330376         3.131839
 H        -1.450402         1.600085         2.720958
 H        -1.964573         0.554549         1.536252
 H        -0.997180        -0.089529         3.001938
 H         0.535185         2.975515         0.912527
 H         0.961195         2.657235         2.540440
 H         3.243151         1.758680         1.384735
 H        -0.799365        -1.475443         0.527884
 H         0.176169        -0.921155        -1.005232
 H         0.847580        -2.117830        -0.059907
 H         1.544316        -1.004555         3.470301
