19
Iteration:   322charge 0 multiplicity 1
 C        -1.272322         0.785974         2.136005
 C         0.295095         0.961820         1.899864
 C         0.880501         2.336047         1.515112
 C         2.164631         1.467379         1.144832
 O         1.798372         0.655338        -0.060061
 C         0.958131        -0.059857         0.822616
 C         0.302322        -1.272881         0.192365
 C         1.621961         0.271003         2.079589
 O         2.136908        -0.433227         3.115066
 H        -1.675346         1.108929         3.157884
 H        -1.918933         1.247757         1.391430
 H        -1.551117        -0.312388         2.126768
 H         0.551677         2.696457         0.547300
 H         0.946618         3.155515         2.214906
 H         3.139330         2.032473         1.118724
 H        -0.413651        -1.779384         0.924942
 H        -0.297525        -0.919691        -0.679505
 H         1.043058        -2.086608        -0.198488
 H         2.373317        -1.323807         2.754327
