19
Iteration:  1491
 C        -1.186781         0.675302         2.233470
 C         0.330548         0.933048         1.908798
 C         0.908339         2.209770         1.466902
 C         2.167540         1.498474         1.087317
 O         1.850615         0.689464        -0.061790
 C         0.913762        -0.026546         0.800894
 C         0.202236        -1.127482         0.014700
 C         1.611394         0.247588         2.135668
 O         2.120353        -0.498119         3.189455
 H        -1.944414         1.312368         1.676058
 H        -1.305723        -0.292129         1.730271
 H        -1.538420         0.458806         3.259794
 H         0.619621         2.872892         0.644724
 H         0.927318         2.951831         2.285464
 H         3.074527         2.043802         1.166766
 H        -0.638143        -1.539487         0.487470
 H        -0.420594        -0.755842        -0.884138
 H         0.993495        -1.830763        -0.458778
 H         1.902363         0.031442         3.996935
