19
Iteration:  1942charge 0 multiplicity 1
 C        -1.124363         0.779864         2.535722
 C         0.196063         0.967963         1.772867
 C         0.915621         2.306492         1.507595
 C         2.201569         1.508813         1.201118
 O         1.866164         0.780132        -0.061808
 C         0.941518        -0.079837         0.674886
 C         0.426406        -1.323888         0.042796
 C         1.633726         0.255802         2.017918
 O         1.875754        -0.573495         3.000049
 H        -1.556858         1.855525         2.486818
 H        -1.718227        -0.012494         2.069946
 H        -0.986737         0.468278         3.553403
 H         0.531479         2.976903         0.665825
 H         0.971676         3.027750         2.335165
 H         3.136836         1.960682         1.146876
 H        -0.073603        -1.936521         0.836415
 H        -0.481283        -1.336419        -0.732839
 H         1.171431        -1.807253        -0.492422
 H         1.409499        -0.246498         3.789149
