19
Iteration:  2300
 C        -1.145020         0.676032         2.340870
 C         0.155610         0.986665         1.733517
 C         0.973867         2.307119         1.502330
 C         2.206749         1.428553         1.166854
 O         1.952278         0.703379        -0.006953
 C         0.834988        -0.000132         0.678840
 C         0.222037        -1.199172         0.153611
 C         1.508274         0.274630         2.101114
 O         2.082376        -0.513806         3.012372
 H        -1.245187         0.912096         3.357131
 H        -1.976710         1.130357         1.715330
 H        -1.277492        -0.430326         2.321341
 H         0.597246         2.856021         0.667716
 H         1.119726         2.836350         2.426776
 H         3.220368         1.831321         0.951934
 H        -0.119694        -1.764976         1.054504
 H        -0.481562        -1.041134        -0.524980
 H         0.878427        -1.890693        -0.260751
 H         2.214400         0.084890         3.785819
