19
Iteration:  3670charge 0 multiplicity 1
 C        -1.117072         0.591522         2.314109
 C         0.254648         0.966339         1.797038
 C         0.969552         2.253686         1.491797
 C         2.195465         1.450494         1.182194
 O         1.868063         0.725036        -0.052983
 C         0.870930        -0.050148         0.780102
 C         0.169145        -1.205985         0.019205
 C         1.574315         0.300845         2.100511
 O         2.078140        -0.410098         3.108052
 H        -1.384664         1.411314         2.995480
 H        -1.840087         0.689987         1.500862
 H        -1.011150        -0.418036         2.850893
 H         0.596606         2.904197         0.575140
 H         1.225927         2.842548         2.385433
 H         3.115441         1.978341         1.041942
 H        -0.675560        -1.616468         0.538479
 H         0.007010        -0.793621        -1.043721
 H         0.891148        -2.042048        -0.143860
 H         1.496604        -0.432987         3.912877
