19
Iteration:  1895charge 0 multiplicity 1
 C        -1.126898         0.591705         2.225589
 C         0.224322         0.994884         1.719586
 C         0.915926         2.321134         1.473842
 C         2.235890         1.549026         1.175590
 O         1.844581         0.709051         0.019986
 C         0.896278        -0.027290         0.786819
 C         0.187268        -1.163938         0.102546
 C         1.612572         0.218591         2.099346
 O         2.095088        -0.532675         3.075933
 H        -1.620281         1.526127         2.517715
 H        -1.756232         0.050489         1.389040
 H        -1.197947        -0.101598         3.103562
 H         0.427580         3.031701         0.845735
 H         0.918763         2.809507         2.485660
 H         3.355924         1.717719         1.093451
 H        -0.465816        -1.658506         0.890273
 H        -0.515393        -0.800927        -0.636537
 H         0.786350        -1.896922        -0.411315
 H         2.253911        -0.068342         3.898640
