19
Iteration:  1035charge 0 multiplicity 1
 C        -1.001661         0.664065         2.505436
 C         0.252137         1.042852         1.795692
 C         0.948856         2.309681         1.470362
 C         2.210676         1.500236         1.294463
 O         1.887118         0.828772        -0.058341
 C         0.964529        -0.004586         0.635241
 C         0.322608        -1.230135         0.080492
 C         1.486904         0.241944         1.988553
 O         1.835176        -0.682940         2.948635
 H        -0.774630         0.874248         3.587276
 H        -1.904173         1.248537         2.326186
 H        -1.185985        -0.389606         2.451456
 H         0.530258         2.885600         0.734307
 H         1.124315         2.816082         2.429011
 H         3.208740         2.036593         1.169878
 H        -0.067579        -1.861664         0.805557
 H        -0.545824        -0.958874        -0.531095
 H         0.951489        -1.704357        -0.566509
 H         1.456486        -0.328471         3.806756
