19
Iteration:  3288
 C        -1.063836         0.719934         2.346698
 C         0.266155         0.935307         1.803755
 C         0.927410         2.290379         1.396273
 C         2.133601         1.462546         1.117996
 O         1.888850         0.718944        -0.056573
 C         0.890036        -0.008971         0.714557
 C         0.241074        -1.194858         0.033673
 C         1.616830         0.274667         2.083044
 O         1.998513        -0.531659         3.196996
 H        -1.172399         1.192521         3.413119
 H        -1.773833         0.872196         1.582304
 H        -1.281656        -0.381274         2.621117
 H         0.553988         3.054304         0.642527
 H         1.134865         3.115938         2.205307
 H         3.104566         1.899731         1.269175
 H         0.090986        -1.870460         0.902203
 H        -0.730358        -1.091397        -0.506979
 H         1.038441        -1.652677        -0.485555
 H         1.267107        -0.641945         3.867121
