19
Iteration:  1713
 C        -1.104293         0.654125         2.268952
 C         0.209222         0.898994         1.723533
 C         0.907944         2.277099         1.499824
 C         2.196420         1.464625         1.161517
 O         1.865257         0.722963        -0.087529
 C         1.008145        -0.057239         0.745823
 C         0.231612        -1.240190         0.100087
 C         1.483553         0.293244         2.130005
 O         2.069098        -0.382549         3.117078
 H        -0.977286         0.202566         3.334426
 H        -1.762368         1.526012         2.249937
 H        -1.734644        -0.077308         1.803113
 H         0.762945         2.933758         0.584453
 H         0.832780         2.736884         2.441966
 H         3.222123         1.896931         1.358431
 H        -0.419450        -1.762654         0.884631
 H        -0.241601        -0.961530        -0.919076
 H         0.784178        -2.046386        -0.143338
 H         1.956552        -0.137648         4.082033
