19
Iteration:  4008
 C        -1.210517         0.745660         2.283340
 C         0.245215         0.978865         1.819985
 C         0.900775         2.306441         1.474026
 C         2.132359         1.520710         1.187078
 O         1.915100         0.769954        -0.033165
 C         0.950612        -0.036217         0.739316
 C         0.221055        -1.239425         0.176211
 C         1.634090         0.223389         2.022192
 O         2.106324        -0.632645         3.002948
 H        -1.548130         1.596306         2.829494
 H        -2.067767         0.530841         1.517751
 H        -1.400969        -0.163810         2.974258
 H         0.571709         3.031447         0.748527
 H         1.009469         2.958121         2.418982
 H         3.099012         2.005489         1.037666
 H        -0.295305        -1.717715         1.026300
 H        -0.610840        -0.995185        -0.600514
 H         1.013825        -1.981638        -0.092126
 H         1.973329        -0.216932         3.902112
