19
Iteration:   288charge 0 multiplicity 1
 C        -1.179011         0.799805         2.301484
 C         0.186511         1.039852         1.654066
 C         0.929390         2.307752         1.500266
 C         2.128315         1.433864         1.245608
 O         1.882464         0.751757        -0.091146
 C         0.933445        -0.057143         0.684703
 C         0.371366        -1.352193         0.295420
 C         1.498378         0.244062         1.998355
 O         1.998426        -0.497663         3.078503
 H        -0.981666         0.825518         3.384995
 H        -2.008642         1.453517         1.969258
 H        -1.545720        -0.249296         2.038127
 H         0.704582         2.894853         0.644127
 H         1.051872         2.859114         2.447357
 H         3.251108         1.816852         1.263870
 H         0.039683        -1.829200         1.344786
 H        -0.530756        -1.278603        -0.273368
 H         1.148124        -2.063483        -0.136354
 H         2.908416        -0.242043         3.065761
