19
Iteration:  2400
 C        -1.114931         0.758818         2.458126
 C         0.182705         1.050777         1.657195
 C         0.978842         2.368439         1.454288
 C         2.175846         1.400107         1.245894
 O         1.832103         0.698101        -0.060818
 C         0.812909         0.042519         0.710252
 C         0.372418        -1.324351         0.124401
 C         1.547691         0.259392         1.960209
 O         2.007199        -0.582544         3.055236
 H        -0.994043         0.844258         3.515064
 H        -1.978226         1.406973         2.319764
 H        -1.353001        -0.276252         2.193280
 H         0.943280         2.980925         0.536477
 H         0.848497         2.984715         2.346713
 H         3.252411         1.927015         1.437730
 H         0.160165        -1.907689         1.016060
 H        -0.386668        -1.299218        -0.581812
 H         1.204997        -1.875510        -0.229540
 H         1.962024        -0.063626         3.911354
