19
Iteration:  4906
 C        -1.028428         0.772012         2.462837
 C         0.277322         0.888498         1.767914
 C         0.825810         2.314273         1.475878
 C         2.146096         1.487967         1.171565
 O         1.837656         0.848538        -0.024956
 C         0.934453        -0.068158         0.672948
 C         0.370078        -1.351346         0.120437
 C         1.549981         0.296369         2.022956
 O         1.882112        -0.510210         3.081448
 H        -0.987496         1.392241         3.308810
 H        -1.802103         1.031187         1.806414
 H        -1.202608        -0.286574         2.726972
 H         0.602105         2.842373         0.610890
 H         0.833260         3.050651         2.284752
 H         3.141073         1.669302         1.287718
 H         0.059546        -1.121346        -0.912876
 H         1.278005        -2.092654        -0.112197
 H        -0.482962        -1.714371         0.672989
 H         2.690075        -1.010427         2.803335
