19
Iteration:  1556charge 0 multiplicity 1
 C        -1.186276         0.788499         2.478689
 C         0.178345         0.931985         1.751951
 C         0.889933         2.295353         1.485491
 C         2.184792         1.471277         1.202419
 O         1.918023         0.765391        -0.103867
 C         0.969109        -0.007903         0.690618
 C         0.447759        -1.295314         0.171975
 C         1.585850         0.303152         1.992069
 O         1.909093        -0.605068         2.998307
 H        -1.774687         1.742474         2.553700
 H        -1.739233         0.286602         1.666758
 H        -1.133067         0.189015         3.424709
 H         0.490729         2.990656         0.732270
 H         0.741731         2.761200         2.532689
 H         3.121357         1.969385         1.120653
 H        -0.238385        -1.572743         0.940133
 H        -0.123125        -1.262179        -0.791299
 H         1.253526        -2.132892         0.102905
 H         1.895190        -0.142466         3.829099
