19
Iteration:  4748
 C        -1.139418         0.782415         2.468654
 C         0.192600         0.915321         1.732773
 C         0.903950         2.251835         1.353294
 C         2.218806         1.394377         1.147517
 O         1.726251         0.842670        -0.049963
 C         0.877813         0.025456         0.753799
 C         0.534808        -1.274303         0.149536
 C         1.607537         0.338186         2.094275
 O         1.953687        -0.542460         3.106604
 H        -1.035129         1.135798         3.479791
 H        -1.992164         1.394274         2.146428
 H        -1.438114        -0.201400         2.499669
 H         0.574792         2.872651         0.494155
 H         0.820410         2.760441         2.223775
 H         3.226484         1.860914         1.063151
 H         0.057827        -1.240389        -0.855282
 H         1.405654        -1.813177        -0.249417
 H        -0.130372        -2.029091         0.755942
 H         1.832468        -1.490807         2.852929
