19
Iteration:  4028
 C        -1.198877         0.719252         2.147271
 C         0.229535         0.955056         1.798043
 C         0.937119         2.233716         1.572734
 C         2.239862         1.402724         1.253642
 O         1.825799         0.796865        -0.069464
 C         0.895493         0.062049         0.804553
 C         0.260832        -1.293150         0.273743
 C         1.529956         0.332743         2.037635
 O         2.175949        -0.549302         2.916852
 H        -1.573264         1.511451         2.764756
 H        -1.932355         0.776004         1.372274
 H        -1.572417        -0.132753         2.607919
 H         0.486098         2.869475         0.754769
 H         1.107131         2.816633         2.574305
 H         3.290977         1.583920         1.226985
 H        -0.348282        -1.845311         0.957899
 H        -0.553420        -0.919219        -0.317309
 H         0.758750        -2.131312        -0.276112
 H         2.151196        -0.194984         3.829652
