19
Iteration:  1672
 C        -1.323011         0.678745         2.182241
 C         0.236355         0.894991         1.857467
 C         0.925896         2.236277         1.446522
 C         2.190138         1.453208         1.141687
 O         1.819439         0.704427        -0.081189
 C         0.981790        -0.093775         0.802934
 C         0.270572        -1.142302         0.055322
 C         1.576074         0.290202         2.148223
 O         2.212592        -0.440964         3.189060
 H        -1.447353         0.592515         3.247392
 H        -1.852746         1.644506         2.083781
 H        -1.869899        -0.221500         1.754561
 H         0.337168         2.523093         0.546369
 H         1.053947         3.026084         2.196491
 H         3.216881         1.877290         0.989144
 H        -0.330791        -1.815838         0.725340
 H        -0.367496        -0.620290        -0.650843
 H         1.045590        -1.760428        -0.528295
 H         1.978645        -0.031371         4.013912
