19
Iteration:  4665charge 0 multiplicity 1
 C        -1.101785         0.657631         2.274356
 C         0.278416         0.981016         1.800866
 C         0.940068         2.319858         1.483620
 C         2.169539         1.492783         1.120494
 O         1.754595         0.800825        -0.031878
 C         0.942409        -0.020997         0.742555
 C         0.168303        -1.319294         0.064784
 C         1.578412         0.253665         2.077136
 O         2.089192        -0.478289         3.194330
 H        -1.501267         1.149263         3.238202
 H        -1.827403         0.741176         1.411430
 H        -0.943623        -0.488819         2.610747
 H         0.478450         2.758473         0.557532
 H         0.975456         3.037385         2.454197
 H         3.210722         1.864243         1.182107
 H         0.248483        -1.256178        -1.031104
 H         0.539326        -2.329882         0.505528
 H        -0.886136        -1.241196         0.253719
 H         3.057296        -0.521892         3.170234
