19
Iteration:   821
 C        -0.970740         0.751353         2.475416
 C         0.292446         0.878384         1.760458
 C         0.951841         2.341647         1.422538
 C         2.209160         1.538977         1.183144
 O         1.737579         0.802797        -0.087564
 C         0.836360         0.008209         0.705396
 C         0.422961        -1.268936         0.070712
 C         1.637517         0.279741         2.081594
 O         1.841404        -0.675271         3.081910
 H        -1.749339         1.163749         1.818409
 H        -1.277869        -0.320140         2.569562
 H        -1.005715         1.261425         3.465022
 H         0.645130         2.866109         0.512972
 H         0.999455         2.923020         2.363437
 H         3.085375         2.098878         1.023394
 H        -0.074940        -1.921019         0.918436
 H        -0.378505        -1.101738        -0.666537
 H         1.238876        -1.752247        -0.436888
 H         1.255888        -0.372753         3.839189
