19
Iteration:  2182charge 0 multiplicity 1
 C        -1.057122         0.775847         2.485325
 C         0.255341         0.988176         1.764709
 C         0.896997         2.332837         1.461875
 C         2.181395         1.496181         1.149232
 O         1.888182         0.810584        -0.043727
 C         0.902767        -0.001058         0.641543
 C         0.377509        -1.257875         0.173861
 C         1.580238         0.196491         1.967226
 O         1.827291        -0.674729         3.002325
 H        -1.694376         1.635734         2.654466
 H        -1.551944        -0.082222         2.035637
 H        -0.803976         0.441904         3.521429
 H         0.486589         2.927362         0.608059
 H         1.027363         2.857096         2.429149
 H         3.071788         2.044119         1.305595
 H         0.065856        -1.805413         1.127419
 H        -0.333622        -1.354745        -0.782587
 H         1.243699        -1.897974        -0.010639
 H         1.949124        -0.067346         3.747087
