19
Iteration:   315charge 0 multiplicity 1
 C        -1.275734         0.727936         2.159047
 C         0.260866         0.983613         1.791773
 C         0.909463         2.317775         1.485537
 C         2.229361         1.496977         1.179477
 O         1.786646         0.678693        -0.045702
 C         0.907817        -0.033990         0.822072
 C         0.300626        -1.293570         0.224897
 C         1.597777         0.298174         2.085270
 O         2.126109        -0.465397         3.131003
 H        -1.358629         1.069235         3.218798
 H        -1.836372         1.344073         1.411946
 H        -1.767281        -0.207314         2.039309
 H         0.469786         2.711458         0.486655
 H         1.021676         2.961967         2.380047
 H         3.204192         1.820412         1.029554
 H        -0.282555        -1.829834         0.883151
 H        -0.419443        -0.980389        -0.622943
 H         1.132512        -1.941172        -0.053765
 H         2.631107        -1.077766         2.608818
