19
Iteration:  2331
 C        -1.028287         0.772050         2.436208
 C         0.241637         0.980119         1.748687
 C         0.945574         2.301734         1.430224
 C         2.233800         1.492068         1.163366
 O         1.769740         0.773626        -0.103871
 C         0.936554        -0.003963         0.752329
 C         0.388186        -1.346116         0.086940
 C         1.573813         0.347193         2.087554
 O         1.858043        -0.617396         3.086931
 H        -0.961143         0.726003         3.472586
 H        -1.779568         1.592054         2.240162
 H        -1.413030        -0.213523         2.083947
 H         0.542385         2.819970         0.595457
 H         1.069317         2.964603         2.280864
 H         3.145506         1.827339         0.911109
 H         0.293755        -2.028087         0.972944
 H        -0.550846        -1.201473        -0.437510
 H         1.083083        -1.873382        -0.599613
 H         1.586086        -0.387225         3.994088
