19
Iteration:  1037charge 0 multiplicity 1
 C        -0.985928         0.661103         2.509726
 C         0.238715         1.021932         1.785251
 C         0.957623         2.320804         1.490642
 C         2.213094         1.482055         1.287276
 O         1.901410         0.824417        -0.055605
 C         0.943878         0.008369         0.641833
 C         0.318397        -1.228705         0.076043
 C         1.477806         0.248544         1.973540
 O         1.845377        -0.673133         2.948971
 H        -0.774281         0.895843         3.587771
 H        -1.904474         1.244134         2.212032
 H        -1.204347        -0.403111         2.501302
 H         0.479148         2.929635         0.758823
 H         1.046302         2.933093         2.435230
 H         3.216310         1.989795         1.202800
 H        -0.127352        -1.945652         0.823732
 H        -0.507564        -0.950760        -0.515097
 H         0.977360        -1.705323        -0.530987
 H         1.447032        -0.337468         3.759107
