19
Iteration:  4197charge 0 multiplicity 1
 C        -1.054357         0.688728         2.371434
 C         0.226250         0.993972         1.801762
 C         0.905325         2.317319         1.436130
 C         2.109361         1.392635         1.215239
 O         1.886519         0.693895        -0.115131
 C         0.932388        -0.045608         0.726164
 C         0.261134        -1.162542         0.080326
 C         1.494633         0.267523         2.075357
 O         2.069857        -0.494167         3.086384
 H        -1.177006         1.346003         3.158316
 H        -1.890404         0.573246         1.674282
 H        -0.901691        -0.289187         2.863765
 H         0.407696         2.997662         0.690084
 H         0.948097         2.769449         2.514024
 H         3.136126         1.731739         1.299768
 H        -0.630149        -1.669964         0.483293
 H        -0.058636        -0.874212        -0.984753
 H         0.943382        -2.008822         0.075037
 H         1.985815         0.044986         3.914487
