19
Iteration:  2805charge 0 multiplicity 1
 C        -1.149442         0.790218         2.356526
 C         0.285404         0.885918         1.765623
 C         0.887882         2.207625         1.496966
 C         2.153668         1.482174         1.084961
 O         1.928277         0.747990        -0.173590
 C         0.964200        -0.120248         0.818231
 C         0.250968        -1.140608         0.087530
 C         1.584896         0.236987         2.028498
 O         1.933214        -0.494960         3.244240
 H        -1.334691         1.674544         3.008365
 H        -1.923239         0.582425         1.646244
 H        -1.247075        -0.052573         3.093368
 H         0.459848         2.964917         0.741785
 H         1.212665         2.817486         2.353838
 H         2.949358         2.018119         1.141338
 H        -0.393133        -1.653260         0.821679
 H        -0.484197        -0.645369        -0.653869
 H         0.947542        -1.900636        -0.377513
 H         2.856827        -0.720535         3.146513
