19
Iteration:  1849charge 0 multiplicity 1
 C        -1.174733         0.746271         2.188912
 C         0.233275         0.917418         1.741737
 C         0.869699         2.272440         1.535996
 C         2.187771         1.438049         1.170536
 O         1.858235         0.780596        -0.011678
 C         0.911393        -0.039785         0.743098
 C         0.200265        -1.227612         0.177829
 C         1.583274         0.234884         2.097835
 O         2.187540        -0.518935         3.078523
 H        -1.368937         1.145013         3.147373
 H        -1.874495         1.101423         1.353834
 H        -1.594008        -0.321364         2.096761
 H         0.533272         2.794313         0.697988
 H         0.913256         2.957095         2.385722
 H         3.175167         1.941445         1.147982
 H        -0.358380        -1.726210         0.906125
 H        -0.333894        -0.954936        -0.642579
 H         1.029056        -1.891955        -0.264120
 H         1.983236        -0.091936         3.943239
