19
Iteration:  2500charge 0 multiplicity 1
 C        -1.211231         0.776580         2.361239
 C         0.207446         1.028587         1.798630
 C         0.995610         2.345890         1.553707
 C         2.119121         1.405858         1.200222
 O         1.888434         0.699348        -0.042066
 C         0.892677        -0.067911         0.718923
 C         0.299575        -1.303796         0.044446
 C         1.475657         0.285873         2.027188
 O         2.135356        -0.527618         2.993420
 H        -1.814369         1.695925         2.474012
 H        -1.765093         0.009244         1.823587
 H        -1.158641         0.289897         3.330581
 H         0.756818         3.178946         0.896048
 H         1.230016         2.792522         2.520038
 H         3.305412         1.739742         1.206902
 H        -0.440427        -1.670616         0.702068
 H        -0.226614        -1.011857        -0.819462
 H         1.109476        -1.990946         0.033536
 H         1.839081        -0.194594         3.861389
