19
Iteration:   774
 C        -1.209949         0.751264         2.313998
 C         0.184973         0.975379         1.726275
 C         0.883207         2.240033         1.581340
 C         2.213241         1.478910         1.237834
 O         1.951100         0.695599        -0.091135
 C         0.878368        -0.007389         0.705102
 C         0.223385        -1.271458         0.127968
 C         1.541917         0.295250         2.058292
 O         2.131575        -0.513744         2.983575
 H        -1.725002         1.688220         2.465417
 H        -1.939066         0.163856         1.785627
 H        -1.017505         0.410225         3.301646
 H         0.505337         2.948707         0.847699
 H         0.953416         2.623028         2.657035
 H         3.331311         1.720333         1.539811
 H        -0.341958        -1.827664         0.977485
 H        -0.484977        -1.131083        -0.745020
 H         1.062209        -1.819392        -0.228574
 H         2.316410         0.009678         3.809156
