19
Iteration:  3530charge 0 multiplicity 1
 C        -1.141721         0.638796         2.382716
 C         0.167368         0.972499         1.616652
 C         0.923227         2.242752         1.437077
 C         2.225285         1.527648         1.204322
 O         1.916910         0.743146        -0.093578
 C         0.931451        -0.013156         0.748985
 C         0.301912        -1.238494         0.156706
 C         1.585864         0.338329         2.109724
 O         1.898310        -0.559977         3.077146
 H        -1.075271         1.161626         3.404794
 H        -2.055139         0.935755         2.024348
 H        -0.995463        -0.409954         2.541870
 H         0.628099         2.909679         0.650678
 H         0.909542         2.792513         2.385713
 H         3.280817         1.844391         1.178285
 H         0.211100        -1.814256         1.005535
 H        -0.609188        -0.903343        -0.405247
 H         0.979088        -1.603888        -0.600058
 H         2.316392        -0.223583         3.905459
