19
Iteration:  3806
 C        -1.200367         0.834210         2.153377
 C         0.188211         0.957366         1.776975
 C         0.957971         2.351356         1.582245
 C         2.171348         1.561331         1.115182
 O         1.772340         0.850674        -0.037113
 C         0.955111        -0.083262         0.790706
 C         0.366531        -1.412769         0.250023
 C         1.608170         0.269543         2.042551
 O         2.095116        -0.671270         2.997805
 H        -1.469017         0.983866         3.275775
 H        -1.873738         1.567936         1.738071
 H        -1.701707        -0.081835         2.041425
 H         0.371497         2.962123         0.853934
 H         1.110077         2.883442         2.556476
 H         3.209545         1.955378         0.989330
 H         0.031188        -2.049014         1.158108
 H        -0.561428        -1.210026        -0.279782
 H         0.951156        -2.042354        -0.437905
 H         2.054681        -0.332811         3.905142
