19
Iteration:  4434
 C        -1.126855         0.712363         2.179240
 C         0.271622         0.928510         1.782937
 C         0.838295         2.284697         1.618622
 C         2.215831         1.490109         1.217497
 O         1.734655         0.748519        -0.112172
 C         0.991160        -0.069065         0.760886
 C         0.190660        -1.248278         0.132334
 C         1.685828         0.182407         2.009803
 O         2.140590        -0.422464         3.135172
 H        -1.594775         1.457412         2.837900
 H        -1.712981         0.770077         1.330070
 H        -1.243835        -0.308755         2.575815
 H         0.536144         3.021010         0.927163
 H         1.029314         2.852962         2.548431
 H         3.151534         1.945112         0.971364
 H        -0.910870        -1.271031         0.325832
 H         0.386562        -1.151161        -0.975790
 H         0.544821        -2.225899         0.463960
 H         1.579572        -0.433034         3.922846
