19
Iteration:     2
 C        -1.139396         0.750122         2.301414
 C         0.215017         0.967025         1.731164
 C         0.923167         2.286009         1.434121
 C         2.187694         1.457432         1.166990
 O         1.859468         0.716993        -0.041395
 C         0.943067        -0.038801         0.757002
 C         0.343426        -1.279244         0.167666
 C         1.560468         0.295987         2.065583
 O         1.978811        -0.518800         3.086650
 H        -1.285334         1.338398         3.244712
 H        -1.933866         1.070025         1.614938
 H        -1.301532        -0.346021         2.522869
 H         0.566658         2.862949         0.552703
 H         1.021363         2.896406         2.361637
 H         3.194414         1.903981         1.166228
 H        -0.293847        -1.814329         0.948384
 H        -0.263952        -1.101951        -0.706723
 H         1.160575        -1.960744        -0.112308
 H         1.882186        -0.042629         3.903955
