19
Iteration:   261
 C        -1.146698         0.784927         2.488989
 C         0.205919         1.003473         1.739327
 C         0.907416         2.281514         1.455432
 C         2.163681         1.459394         1.107763
 O         1.975723         0.742919        -0.099722
 C         0.903549        -0.078911         0.727846
 C         0.441793        -1.417867         0.211890
 C         1.592393         0.343328         1.995351
 O         1.790329        -0.506084         3.022565
 H        -1.083673         1.005380         3.574537
 H        -1.837146         1.637162         2.174645
 H        -1.483465        -0.191199         2.218808
 H         0.543615         3.059419         0.684161
 H         1.104109         2.807469         2.416194
 H         3.153587         1.897702         1.130774
 H         0.233514        -1.933250         1.105800
 H        -0.519828        -1.352967        -0.398217
 H         1.123448        -1.959783        -0.398562
 H         2.246570        -0.030389         3.708055
