19
Iteration:  2851charge 0 multiplicity 1
 C        -1.192890         0.687954         2.233167
 C         0.243571         1.041113         1.806905
 C         0.948479         2.255239         1.454953
 C         2.180025         1.364092         1.253888
 O         1.894005         0.677576        -0.063953
 C         0.872351         0.048017         0.756201
 C         0.155823        -1.233112         0.143826
 C         1.495091         0.273792         2.030023
 O         2.185426        -0.371238         3.174106
 H        -1.502518         0.663454         3.332453
 H        -1.925222         1.168552         1.647338
 H        -1.342805        -0.296768         1.866862
 H         0.662301         2.977915         0.651443
 H         1.150693         2.890485         2.329842
 H         3.188122         1.502288         1.310270
 H        -0.456923        -1.862755         0.768679
 H        -0.401850        -0.843454        -0.763258
 H         0.980628        -1.835181        -0.272241
 H         2.510463        -1.257977         2.939187
