19
Iteration:  1694charge 0 multiplicity 1
 C        -1.144851         0.671855         2.214321
 C         0.214649         0.931049         1.770176
 C         0.856578         2.307975         1.425864
 C         2.159443         1.442325         1.166659
 O         1.824052         0.664789         0.024778
 C         0.913899        -0.070524         0.800654
 C         0.219883        -1.173737         0.056863
 C         1.688194         0.277685         2.049763
 O         2.174124        -0.457040         3.212393
 H        -1.463134         0.305363         3.158334
 H        -1.819010         1.558010         2.058340
 H        -1.588752        -0.141891         1.561719
 H         0.343286         2.883324         0.640755
 H         1.057674         2.854735         2.341467
 H         3.120476         1.987582         1.055751
 H        -0.504051        -1.801238         0.621793
 H        -0.208847        -0.683848        -0.793546
 H         0.982653        -1.894152        -0.392765
 H         1.785481         0.204991         3.862116
