19
Iteration:  4493charge 0 multiplicity 1
 C        -1.192596         0.715626         2.340455
 C         0.170803         1.031406         1.759541
 C         0.831707         2.359758         1.480798
 C         2.129497         1.479170         1.219944
 O         1.913582         0.732855        -0.007913
 C         0.948170        -0.061853         0.760069
 C         0.358794        -1.337807         0.225754
 C         1.482054         0.325963         2.121974
 O         2.080524        -0.572121         2.841862
 H        -1.274632         1.208609         3.318933
 H        -1.914173         1.165530         1.572264
 H        -1.448594        -0.354767         2.439509
 H         0.622832         3.040943         0.661308
 H         1.239002         2.895673         2.327609
 H         3.191310         1.867900         1.345787
 H        -0.645617        -1.252998        -0.211700
 H         1.067542        -1.665197        -0.596354
 H         0.485364        -2.143291         1.006271
 H         2.584681        -0.240298         3.595636
