19
Iteration:  2976charge 0 multiplicity 1
 C        -1.120339         0.697517         2.466166
 C         0.158724         0.906852         1.717003
 C         0.982563         2.315540         1.451709
 C         2.240792         1.373361         1.153032
 O         1.878061         0.810326        -0.091304
 C         0.925031        -0.042864         0.678263
 C         0.275789        -1.285958         0.118565
 C         1.566289         0.314819         2.037044
 O         1.933835        -0.393328         3.173697
 H        -1.311646         1.400386         3.216590
 H        -1.932860         0.710424         1.717631
 H        -1.051217        -0.226565         3.038638
 H         0.862721         2.752641         0.519923
 H         1.083357         2.884630         2.358423
 H         3.381630         1.788410         1.311503
 H        -0.420401        -1.732750         0.817457
 H        -0.262506        -1.072830        -0.715536
 H         1.058340        -1.956815        -0.178743
 H         1.812735        -1.316817         2.846712
