19
Iteration:   669
 C        -1.090407         0.779400         2.501006
 C         0.211767         0.961395         1.686758
 C         0.918024         2.206017         1.464504
 C         2.207364         1.422573         1.253586
 O         1.919728         0.802398        -0.027726
 C         0.855355         0.041169         0.593965
 C         0.360892        -1.401458         0.199914
 C         1.518652         0.233332         1.951893
 O         1.946241        -0.443642         2.992037
 H        -0.894147         0.629380         3.577933
 H        -1.733951         1.681880         2.339740
 H        -1.844608         0.059746         2.016995
 H         0.568456         2.861289         0.663310
 H         1.185815         2.841182         2.313407
 H         3.112359         1.927892         1.145380
 H        -0.021818        -1.961903         1.153329
 H        -0.398944        -1.526833        -0.554630
 H         1.253372        -1.963190        -0.047955
 H         1.697797         0.044743         3.843842
