19
Iteration:  3553charge 0 multiplicity 1
 C        -1.114847         0.669835         2.352060
 C         0.226661         0.998100         1.736612
 C         0.915196         2.378858         1.452896
 C         2.185430         1.494656         1.225031
 O         1.925140         0.790020        -0.054144
 C         0.939201        -0.025783         0.663779
 C         0.376197        -1.329825         0.264200
 C         1.456346         0.216971         2.010978
 O         1.887584        -0.590447         3.031181
 H        -1.163747         0.970028         3.434251
 H        -1.720123         1.379574         1.903368
 H        -1.435131        -0.301951         2.210105
 H         0.491358         2.920197         0.614967
 H         0.991532         3.070919         2.326702
 H         3.201730         1.942814         1.220093
 H         0.461657        -1.918812         1.107425
 H        -0.609075        -1.143143        -0.114157
 H         0.951070        -1.663145        -0.570398
 H         2.569994        -0.046669         3.474309
