19
Iteration:  1597
 C        -1.076282         0.687392         2.381057
 C         0.261026         1.064249         1.743617
 C         0.862123         2.369137         1.473938
 C         2.250175         1.575457         1.139936
 O         1.775412         0.762509        -0.072680
 C         0.889515         0.057425         0.732806
 C         0.502376        -1.370821         0.279104
 C         1.582448         0.302315         2.030083
 O         1.802471        -0.715410         2.990632
 H        -1.535398         1.464151         2.961676
 H        -1.833505         0.625558         1.549206
 H        -1.311065        -0.237893         2.992741
 H         0.887578         2.813402         0.522196
 H         1.197051         3.093698         2.278945
 H         3.253646         2.053369         1.018533
 H         0.243889        -2.039861         1.075109
 H        -0.097368        -1.278067        -0.531935
 H         1.504692        -1.839595        -0.160400
 H         1.735195        -0.389094         3.944950
