19
Iteration:  2770charge 0 multiplicity 1
 C        -1.023352         0.687814         2.509088
 C         0.124082         1.032767         1.661966
 C         1.043678         2.337906         1.445411
 C         2.202499         1.421971         1.246385
 O         1.864901         0.781247        -0.072781
 C         0.849900        -0.057403         0.730136
 C         0.324583        -1.303672         0.061045
 C         1.538784         0.231613         2.017141
 O         1.855055        -0.428781         3.115496
 H        -1.638556         1.555529         2.676812
 H        -1.776707        -0.020759         2.014444
 H        -0.584997         0.331786         3.499212
 H         0.846752         2.971092         0.526350
 H         1.155002         2.918223         2.412798
 H         3.236653         1.664665         1.405676
 H        -0.216582        -2.012774         0.810753
 H        -0.384257        -1.003405        -0.777467
 H         1.169386        -1.922850        -0.412826
 H         2.499615        -1.081196         2.818128
