19
Iteration:  2309
 C        -1.154880         0.659230         2.398601
 C         0.190759         0.994669         1.761665
 C         0.992787         2.348747         1.460340
 C         2.204920         1.430972         1.172034
 O         1.908762         0.709772        -0.058325
 C         0.900594        -0.013296         0.785328
 C         0.291058        -1.220250         0.180659
 C         1.487190         0.248685         1.971410
 O         2.000531        -0.516879         3.010692
 H        -1.226195         0.861285         3.418209
 H        -1.973030         1.304946         1.951777
 H        -1.375179        -0.415131         2.217092
 H         0.738567         2.994086         0.653278
 H         1.050969         2.959851         2.345112
 H         3.197741         1.717560         1.149597
 H        -0.040901        -1.921173         0.978947
 H        -0.489517        -0.948587        -0.497631
 H         1.104599        -1.728372        -0.382996
 H         2.074396        -0.056117         3.873196
