19
Iteration:   546
 C        -1.253207         0.783594         2.139530
 C         0.231205         0.967135         1.788812
 C         0.915002         2.263273         1.505386
 C         2.184870         1.446672         1.169291
 O         1.800059         0.703923        -0.055452
 C         0.948082        -0.070699         0.747156
 C         0.191552        -1.222327         0.229195
 C         1.543119         0.268996         2.123453
 O         2.274700        -0.510121         3.083985
 H        -1.477039         0.361413         3.162130
 H        -1.929475         1.663846         1.829756
 H        -1.615028        -0.132828         1.576414
 H         0.467250         2.837596         0.701606
 H         1.146385         2.886225         2.412908
 H         3.217834         1.944454         1.112412
 H        -0.519932        -1.795299         0.949411
 H        -0.318634        -1.089245        -0.805584
 H         1.024066        -1.836424         0.002954
 H         2.248441         0.058541         3.879832
