19
Iteration:  4749
 C        -1.147094         0.774138         2.466273
 C         0.195808         0.902433         1.732986
 C         0.916856         2.259643         1.349990
 C         2.207999         1.401154         1.148388
 O         1.730250         0.836542        -0.049364
 C         0.878082         0.033893         0.755736
 C         0.528330        -1.269127         0.154368
 C         1.598492         0.343165         2.082440
 O         1.957155        -0.543092         3.111248
 H        -1.059476         1.148029         3.474713
 H        -1.970120         1.409603         2.164429
 H        -1.459768        -0.197034         2.537469
 H         0.558118         2.846492         0.488806
 H         0.846282         2.754256         2.255587
 H         3.252289         1.817182         1.060755
 H         0.060731        -1.238279        -0.849721
 H         1.428929        -1.824727        -0.308858
 H        -0.091821        -2.011979         0.749696
 H         1.848186        -1.490173         2.870219
