19
Iteration:  3535charge 0 multiplicity 1
 C        -1.126939         0.668058         2.375755
 C         0.150908         0.985989         1.636824
 C         0.886575         2.256540         1.428286
 C         2.197504         1.461243         1.187210
 O         1.923251         0.774247        -0.096601
 C         0.973475        -0.005183         0.719529
 C         0.328715        -1.210747         0.172612
 C         1.591805         0.374623         2.087338
 O         1.894753        -0.586086         3.093249
 H        -1.015920         0.999279         3.380468
 H        -2.236917         0.934443         2.051744
 H        -1.162218        -0.460665         2.508835
 H         0.692303         3.015229         0.570031
 H         0.980387         2.793991         2.468920
 H         3.262444         1.673822         1.312671
 H         0.186343        -1.983749         1.048180
 H        -0.689610        -1.058352        -0.178470
 H         0.987595        -1.763106        -0.539538
 H         2.438242        -0.281738         3.840362
