19
Iteration:  3155
 C        -1.079595         0.786249         2.407804
 C         0.191459         1.030542         1.689374
 C         0.958565         2.298202         1.484708
 C         2.204641         1.437824         1.209437
 O         1.903912         0.711112        -0.058418
 C         0.954783        -0.058816         0.687284
 C         0.366773        -1.317282         0.217605
 C         1.454146         0.330219         2.019452
 O         1.877718        -0.465514         3.024321
 H        -0.785992         0.920914         3.501514
 H        -1.896228         1.360407         2.090609
 H        -1.341039        -0.288089         2.640168
 H         0.489317         2.801967         0.630365
 H         0.839447         2.888034         2.445462
 H         3.177425         1.832736         1.268129
 H        -0.293263        -1.759864         0.966155
 H        -0.177933        -1.126919        -0.659850
 H         1.058345        -2.075239        -0.003935
 H         2.369272        -1.315486         2.784368
