19
Iteration:  3122
 C        -1.123922         0.739171         2.449525
 C         0.252915         1.008775         1.727824
 C         0.982393         2.332824         1.420194
 C         2.274980         1.482815         1.083835
 O         1.861434         0.778925        -0.020902
 C         0.835825         0.001170         0.697662
 C         0.403718        -1.393027         0.146982
 C         1.525444         0.279167         2.044291
 O         1.871846        -0.502353         3.149379
 H        -0.872675         1.036930         3.496129
 H        -1.917870         1.377685         2.278585
 H        -1.529295        -0.296823         2.279495
 H         0.623344         2.890477         0.548001
 H         1.033014         3.034179         2.263727
 H         3.213080         1.992472         0.992374
 H        -0.032796        -2.008986         0.915678
 H        -0.342870        -1.317403        -0.605712
 H         1.192678        -1.866227        -0.323524
 H         1.641693        -1.427692         2.969649
