19
Iteration:  3279
 C        -1.102606         0.668205         2.365550
 C         0.273013         0.984765         1.750819
 C         0.894926         2.328342         1.400799
 C         2.208656         1.483130         1.141785
 O         1.887875         0.734446        -0.018483
 C         0.934483        -0.047878         0.738005
 C         0.200351        -1.231773         0.025743
 C         1.591030         0.269935         2.074793
 O         2.056137        -0.501126         3.203785
 H        -1.363974         1.431053         3.183622
 H        -1.941763         0.952949         1.651237
 H        -1.137595        -0.370087         2.611541
 H         0.603701         2.839938         0.504154
 H         0.996884         2.713344         2.383181
 H         3.260978         1.834081         1.178767
 H        -0.174092        -1.778795         0.876148
 H        -0.729427        -0.879142        -0.535255
 H         0.781192        -1.874566        -0.626387
 H         1.172677        -0.813272         3.553104
