19
Iteration:  3766
 C        -1.254474         0.690310         2.421179
 C         0.194265         1.000227         1.794755
 C         0.961631         2.293505         1.504408
 C         2.285587         1.422923         1.131952
 O         1.815638         0.825382        -0.050370
 C         0.850303         0.009790         0.651279
 C         0.393074        -1.294842         0.177071
 C         1.615119         0.271999         2.023895
 O         2.002347        -0.564370         3.020753
 H        -1.325771         1.453674         3.148027
 H        -2.034175         0.875002         1.588785
 H        -1.246505        -0.312831         2.895608
 H         0.679383         2.838670         0.597812
 H         1.120306         2.966826         2.366561
 H         3.307452         1.768468         1.206268
 H        -0.004066        -1.927870         0.993395
 H        -0.300465        -1.201521        -0.651003
 H         1.280563        -1.904248        -0.176894
 H         1.448339        -0.215550         3.755880
