19
Iteration:  4431charge 0 multiplicity 1
 C        -1.099301         0.708143         2.188011
 C         0.255713         0.908331         1.788359
 C         0.869909         2.279822         1.637959
 C         2.198885         1.494369         1.224591
 O         1.759800         0.740001        -0.097743
 C         0.954055        -0.077672         0.766048
 C         0.184845        -1.237688         0.118753
 C         1.658480         0.186901         1.960119
 O         2.134196        -0.397967         3.133006
 H        -1.594341         1.374150         2.880315
 H        -1.730947         0.735177         1.270746
 H        -1.193532        -0.248287         2.597768
 H         0.497388         3.058075         0.851714
 H         1.145085         2.814302         2.536505
 H         3.190933         1.994573         1.020997
 H        -0.881558        -1.336386         0.296502
 H         0.372758        -1.176135        -0.850435
 H         0.622447        -2.240243         0.430707
 H         1.563376        -0.351296         3.906393
