19
Iteration:  1566
 C        -1.113817         0.754120         2.414832
 C         0.200753         0.998870         1.741667
 C         0.892859         2.249078         1.487348
 C         2.189107         1.536772         1.156451
 O         1.835786         0.785506        -0.117189
 C         0.991587        -0.029012         0.713291
 C         0.503664        -1.279772         0.249879
 C         1.508803         0.296649         2.061983
 O         1.858587        -0.650039         2.974695
 H        -1.511787         1.774773         2.689769
 H        -1.873270         0.165275         1.806658
 H        -1.203629         0.146459         3.387091
 H         0.640530         2.838759         0.602992
 H         1.164071         3.027875         2.400301
 H         3.159234         2.000202         1.077019
 H        -0.197388        -1.760963         0.891968
 H        -0.034217        -1.073901        -0.692635
 H         1.446610        -2.003573         0.031747
 H         1.778300        -0.363841         3.880456
