19
Iteration:  1761charge 0 multiplicity 1
 C        -1.007414         0.756184         2.457219
 C         0.244027         1.022015         1.680465
 C         0.896266         2.287382         1.391884
 C         2.145425         1.522612         1.136838
 O         1.794179         0.780890        -0.080522
 C         0.955069        -0.015137         0.725852
 C         0.520029        -1.341298         0.213052
 C         1.528396         0.299354         2.068273
 O         1.796302        -0.595754         3.053496
 H        -0.848167         0.359369         3.382095
 H        -1.644296         1.678375         2.413817
 H        -1.637194        -0.022452         1.843164
 H         0.484124         2.912360         0.669340
 H         1.233162         2.722100         2.346174
 H         3.160341         1.837761         1.227230
 H         0.019912        -1.867537         0.953975
 H        -0.029349        -1.119827        -0.611292
 H         1.315150        -2.131661        -0.159598
 H         1.666925        -0.458344         3.987256
