19
Iteration:  1434
 C        -1.121287         0.703248         2.402276
 C         0.175096         0.987339         1.695705
 C         0.901595         2.404582         1.547438
 C         2.207824         1.395003         1.186391
 O         1.962536         0.788037        -0.041792
 C         0.873176         0.019278         0.617810
 C         0.349500        -1.269732         0.165635
 C         1.490898         0.227517         2.012101
 O         1.955263        -0.572580         3.019758
 H        -1.814438         0.346354         1.659471
 H        -0.988543        -0.088918         3.168897
 H        -1.400872         1.634142         2.979772
 H         0.755263         2.965677         0.675810
 H         0.956207         2.875040         2.571276
 H         3.192268         1.806124         1.302526
 H         0.258831        -1.896390         1.039371
 H        -0.588013        -1.283540        -0.366687
 H         1.122685        -1.896168        -0.467912
 H         1.857551        -0.272322         3.961250
