19
Iteration:  1190
 C        -1.185462         0.745803         2.385011
 C         0.279671         0.953625         1.806151
 C         1.015824         2.284272         1.534772
 C         2.249305         1.509646         1.176457
 O         1.754380         0.874867        -0.048817
 C         0.982291        -0.002812         0.755914
 C         0.384038        -1.239681         0.124366
 C         1.608551         0.264063         2.038701
 O         1.809993        -0.743613         2.930415
 H        -1.171130         1.406260         3.242406
 H        -2.020359         1.065559         1.765864
 H        -1.278297        -0.247510         2.780505
 H         0.600462         2.903917         0.752114
 H         1.283821         2.872583         2.482207
 H         3.241541         2.098045         1.141056
 H         0.131281        -2.115167         0.849775
 H        -0.370610        -0.920266        -0.619902
 H         1.149291        -1.640448        -0.475934
 H         1.944386        -0.464553         3.823451
