19
Iteration:  1894
 C        -1.130828         0.590871         2.221699
 C         0.222905         0.993825         1.728940
 C         0.920969         2.323917         1.472792
 C         2.240201         1.549592         1.168630
 O         1.842127         0.712355         0.022549
 C         0.898902        -0.034946         0.792365
 C         0.184767        -1.160906         0.102109
 C         1.608202         0.219692         2.100978
 O         2.096568        -0.532328         3.073457
 H        -1.629416         1.502499         2.497568
 H        -1.754596         0.081746         1.359069
 H        -1.189357        -0.120815         3.113235
 H         0.411429         3.008787         0.864135
 H         0.925239         2.819755         2.469732
 H         3.367554         1.716276         1.086901
 H        -0.471074        -1.639485         0.852688
 H        -0.506353        -0.810392        -0.597811
 H         0.798168        -1.926706        -0.422751
 H         2.253589        -0.055754         3.902083
