19
Iteration:  1012charge 0 multiplicity 1
 C        -1.089526         0.662484         2.506325
 C         0.270429         0.930869         1.782387
 C         0.952251         2.373986         1.505757
 C         2.225259         1.542909         1.094929
 O         1.862037         0.849748        -0.099950
 C         0.980503        -0.008608         0.724711
 C         0.384959        -1.184795         0.110887
 C         1.599471         0.273063         2.050116
 O         1.762352        -0.785843         3.021070
 H        -1.006794         0.517078         3.621682
 H        -1.565905         1.652892         2.427569
 H        -1.723347        -0.134453         2.126318
 H         0.380611         2.773025         0.712580
 H         0.961841         2.975234         2.416938
 H         3.297805         1.918067         0.943404
 H         0.007187        -1.871936         0.760162
 H        -0.545601        -0.857002        -0.432521
 H         0.989483        -1.537328        -0.734964
 H         1.891983        -0.301733         3.824280
