19
Iteration:  2215
 C        -1.185424         0.754146         2.363346
 C         0.218568         0.945629         1.704769
 C         0.994709         2.284977         1.501638
 C         2.172085         1.446580         1.238552
 O         1.792297         0.743884        -0.013384
 C         0.943217        -0.027803         0.742924
 C         0.302419        -1.245488         0.090606
 C         1.517105         0.298599         2.062317
 O         2.111664        -0.549316         2.958443
 H        -1.782518         1.674723         2.489682
 H        -1.841793         0.097251         1.798120
 H        -1.036879         0.253415         3.337093
 H         0.738239         3.169696         0.858534
 H         1.165775         2.671238         2.548424
 H         3.203215         1.823400         1.214755
 H        -0.450674        -1.553238         0.925354
 H        -0.319750        -1.235264        -0.946965
 H         1.036673        -2.042544         0.073681
 H         1.834986        -0.210854         3.832343
