19
Iteration:   423
 C        -1.023551         0.609608         2.458195
 C         0.277067         0.949448         1.767402
 C         0.953363         2.284401         1.438270
 C         2.196107         1.510382         1.033955
 O         1.813847         0.734830        -0.086452
 C         0.961491        -0.030359         0.756133
 C         0.389090        -1.250718         0.081999
 C         1.603612         0.373211         2.121399
 O         1.747999        -0.531711         3.122358
 H        -1.526553         1.625621         2.856363
 H        -1.821604         0.196835         1.766521
 H        -0.938204         0.008405         3.356243
 H         0.515346         2.894691         0.614674
 H         1.162724         2.929796         2.274637
 H         3.192527         1.814845         0.905935
 H        -0.211515        -1.795835         0.792782
 H        -0.365991        -1.004375        -0.822369
 H         1.228328        -1.946025        -0.405734
 H         2.041850        -0.084745         3.907574
