19
Iteration:  3158
 C        -1.089312         0.778315         2.411258
 C         0.187854         1.017972         1.701493
 C         0.965049         2.317588         1.473177
 C         2.207643         1.452779         1.191243
 O         1.919557         0.732671        -0.035040
 C         0.947809        -0.068964         0.699337
 C         0.330897        -1.333449         0.194392
 C         1.479689         0.326461         2.010126
 O         1.879177        -0.473798         3.032534
 H        -0.854144         0.934548         3.586867
 H        -1.910924         1.424780         1.957338
 H        -1.342879        -0.266335         2.670556
 H         0.500784         2.781314         0.619267
 H         0.825113         2.812650         2.456959
 H         3.215595         1.829403         1.222456
 H        -0.326661        -1.770572         1.015481
 H        -0.247981        -1.196423        -0.799207
 H         1.131964        -2.114581         0.081721
 H         2.428957        -1.213589         2.762815
