19
Iteration:  1991
 C        -1.133767         0.784593         2.489357
 C         0.234363         0.965338         1.817316
 C         0.994025         2.303031         1.528863
 C         2.207364         1.455353         1.204489
 O         1.800815         0.856173        -0.095880
 C         0.912176        -0.032635         0.677531
 C         0.462509        -1.365501         0.159234
 C         1.497589         0.253791         1.944637
 O         1.849212        -0.614865         2.965463
 H        -1.869131         1.281680         1.992527
 H        -1.218414        -0.306453         2.649336
 H        -1.132260         1.150446         3.542360
 H         0.758398         3.035824         0.732105
 H         1.069622         2.963670         2.433010
 H         3.283582         1.973251         1.249204
 H        -0.183415        -2.099232         0.710232
 H         0.050254        -1.109557        -0.760310
 H         1.422625        -1.834344        -0.387547
 H         1.875596        -0.045107         3.770703
