19
Iteration:   440charge 0 multiplicity 1
 C        -1.010269         0.704400         2.473562
 C         0.238794         1.040386         1.658767
 C         0.864868         2.339601         1.353501
 C         2.225101         1.531287         1.115371
 O         1.856647         0.738196        -0.099437
 C         0.906569        -0.019787         0.754809
 C         0.411718        -1.235426         0.205154
 C         1.546800         0.261122         2.008873
 O         1.829142        -0.673368         3.137876
 H        -1.413473         1.530718         2.950226
 H        -1.821035         0.201893         1.949180
 H        -0.640832        -0.053278         3.208731
 H         0.534367         2.983750         0.533714
 H         0.874172         2.895428         2.339500
 H         3.218427         2.118623         1.031068
 H         0.040341        -1.951144         0.969983
 H        -0.287933        -1.001741        -0.512511
 H         1.251701        -1.692951        -0.208915
 H         1.622389        -0.289524         3.985925
