19
Iteration:  3712
 C        -1.040020         0.627391         2.536978
 C         0.230414         0.895921         1.771488
 C         0.924175         2.207114         1.402678
 C         2.194851         1.542830         1.094345
 O         1.927337         0.714245        -0.073891
 C         0.958906        -0.036731         0.709134
 C         0.242941        -1.133352        -0.020879
 C         1.532883         0.326647         2.057920
 O         1.898116        -0.521433         3.186176
 H        -1.513064         1.422118         2.997406
 H        -1.878890         0.292797         1.852682
 H        -0.818165        -0.168402         3.310509
 H         0.520304         2.879096         0.515103
 H         1.032172         2.802232         2.368852
 H         3.134527         2.035898         1.195049
 H        -0.698144        -1.404715         0.467638
 H         0.046206        -0.823495        -1.024642
 H         0.749694        -2.070128        -0.299408
 H         2.248018         0.029918         3.910438
