19
Iteration:  3675
 C        -1.077775         0.591705         2.340521
 C         0.251057         1.000688         1.850627
 C         0.961507         2.248674         1.457125
 C         2.196062         1.471182         1.186017
 O         1.834959         0.709553        -0.030271
 C         0.904851        -0.056836         0.750202
 C         0.195658        -1.212139        -0.022175
 C         1.574826         0.285303         2.094720
 O         2.055785        -0.410015         3.102868
 H        -1.465111         1.404007         3.040694
 H        -1.722717         0.518737         1.433972
 H        -1.038589        -0.347189         2.824969
 H         0.646656         2.800014         0.661165
 H         1.091019         2.890058         2.342734
 H         3.266136         1.834034         1.091810
 H        -0.750403        -1.522161         0.510870
 H        -0.077968        -0.738754        -0.972507
 H         0.851268        -2.074367        -0.094092
 H         1.438376        -0.256763         3.828379
