19
Iteration:  4888
 C        -1.131627         0.672461         2.448817
 C         0.175889         0.981199         1.705113
 C         0.902195         2.269707         1.423682
 C         2.221103         1.448884         1.331479
 O         1.866679         0.804515        -0.062336
 C         0.863485        -0.041499         0.686660
 C         0.316893        -1.281106         0.050375
 C         1.570531         0.235650         2.007674
 O         2.043240        -0.426352         3.119114
 H        -1.281355         1.438640         3.264095
 H        -2.069366         0.873448         1.838154
 H        -1.103762        -0.364167         2.834008
 H         0.487282         2.838781         0.540259
 H         0.814408         2.986301         2.287643
 H         3.241618         1.993096         1.345181
 H        -0.244367        -1.089523        -0.842425
 H         1.026269        -1.960228        -0.093861
 H        -0.391081        -1.664301         0.879115
 H         2.499858        -1.276749         2.905483
