19
Iteration:  4056
 C        -1.250597         0.780011         2.133333
 C         0.186997         1.046381         1.769727
 C         0.969943         2.329965         1.576319
 C         2.189117         1.559697         1.171058
 O         1.777755         0.761524        -0.062355
 C         0.837425         0.016738         0.743944
 C         0.267799        -1.340698         0.221271
 C         1.630245         0.251486         2.101073
 O         2.245238        -0.705010         3.073064
 H        -1.742914         1.219732         3.081867
 H        -1.960337         1.141346         1.308349
 H        -1.604903        -0.302472         2.118895
 H         0.586453         3.050814         0.851814
 H         1.154464         2.818687         2.469763
 H         3.212004         1.960794         0.974426
 H        -0.146231        -2.002081         1.046187
 H        -0.668225        -1.210712        -0.407470
 H         1.000365        -1.973813        -0.303819
 H         2.397107        -0.090676         3.799103
