19
Iteration:  2835charge 0 multiplicity 1
 C        -1.106724         0.686983         2.178674
 C         0.302461         0.908777         1.803656
 C         0.916783         2.317731         1.473179
 C         2.200826         1.429606         1.205545
 O         1.828511         0.708892         0.003192
 C         0.848449        -0.091988         0.784949
 C         0.154736        -1.166438         0.075987
 C         1.592515         0.232219         2.067275
 O         2.100523        -0.376722         3.194662
 H        -1.258990         1.136974         3.144892
 H        -1.767573         1.345850         1.506777
 H        -1.427456        -0.408245         2.276123
 H         0.539257         2.675830         0.496821
 H         1.033764         3.069210         2.290613
 H         3.315612         1.936684         1.160544
 H        -0.513103        -1.599025         0.888630
 H        -0.559975        -0.921961        -0.752132
 H         0.867981        -1.928014        -0.345648
 H         2.558869        -1.178402         2.820716
