19
Iteration:   107charge 0 multiplicity 1
 C        -1.127212         0.734789         2.287170
 C         0.228702         0.934508         1.680535
 C         0.843691         2.338902         1.416475
 C         2.204927         1.451352         1.115627
 O         1.899971         0.762448        -0.011362
 C         0.939239        -0.105700         0.844594
 C         0.240435        -1.334236         0.195065
 C         1.603322         0.387909         2.105315
 O         2.016429        -0.538101         3.053217
 H        -1.142820         1.326831         3.253932
 H        -1.913963         1.119257         1.521623
 H        -1.377946        -0.287574         2.505829
 H         0.448658         2.977738         0.579219
 H         0.905496         2.812824         2.395511
 H         3.181821         1.866595         1.175897
 H        -0.395332        -1.856742         0.848716
 H        -0.405888        -0.999729        -0.772702
 H         1.087041        -2.019524        -0.127798
 H         2.315190        -0.179259         3.921797
