19
Iteration:  2846charge 0 multiplicity 1
 C        -1.120737         0.690738         2.221185
 C         0.252524         1.018144         1.828557
 C         0.953406         2.271282         1.442903
 C         2.140156         1.351177         1.240443
 O         1.883512         0.692630        -0.040883
 C         0.841567         0.012202         0.736148
 C         0.128033        -1.208529         0.133202
 C         1.553361         0.240978         2.072455
 O         2.157558        -0.362105         3.158387
 H        -1.441288         0.800249         3.235597
 H        -1.802251         1.251942         1.485059
 H        -1.312052        -0.382719         1.877996
 H         0.601460         2.903374         0.595948
 H         0.965206         2.931128         2.331276
 H         3.242733         1.801841         1.436445
 H        -0.463879        -1.931816         0.747139
 H        -0.412478        -0.835633        -0.769292
 H         0.994128        -1.833661        -0.213285
 H         2.553745        -1.253967         3.015527
