19
Iteration:  1805charge 0 multiplicity 1
 C        -1.153199         0.835881         2.392564
 C         0.191853         0.991264         1.838722
 C         0.881403         2.276482         1.449689
 C         2.124482         1.412371         1.148988
 O         1.920372         0.764264        -0.057674
 C         0.905478        -0.034531         0.696469
 C         0.491213        -1.321804         0.175003
 C         1.479071         0.316288         2.018126
 O         1.952281        -0.595827         3.000772
 H        -0.879374         0.655185         3.369599
 H        -1.772233         1.739440         2.251961
 H        -1.776710        -0.043835         2.033740
 H         0.448636         2.830998         0.670391
 H         1.168236         2.854099         2.333600
 H         3.091421         1.891982         1.235231
 H         0.219597        -1.823112         1.046252
 H        -0.189207        -1.300594        -0.577779
 H         1.404419        -1.939532        -0.159161
 H         1.834433        -0.032124         3.774712
