19
Iteration:   889charge 0 multiplicity 1
 C        -1.072379         0.692301         2.355568
 C         0.217989         0.983637         1.761039
 C         0.916739         2.280385         1.519618
 C         2.138072         1.432883         1.221553
 O         1.823083         0.740929        -0.100505
 C         0.893651         0.075734         0.722526
 C         0.263627        -1.153470         0.099613
 C         1.575648         0.244586         2.082443
 O         2.070268        -0.609353         3.055381
 H        -1.570459        -0.069803         1.697469
 H        -1.104098         0.164715         3.349896
 H        -1.679956         1.658931         2.403731
 H         0.632010         2.855084         0.594325
 H         1.014804         2.813731         2.444989
 H         3.140150         1.722164         1.317736
 H        -0.485731        -1.710513         0.654702
 H        -0.301690        -0.848324        -0.804168
 H         1.075617        -1.930801        -0.262272
 H         2.344572        -0.192116         3.885171
