19
Iteration:   850
 C        -1.069615         0.711316         2.573907
 C         0.183932         0.942223         1.713876
 C         0.956641         2.322773         1.550617
 C         2.204394         1.446736         1.225511
 O         1.913768         0.771851        -0.164291
 C         0.898538        -0.017572         0.616198
 C         0.396545        -1.301982         0.086123
 C         1.515965         0.323205         2.011668
 O         1.835430        -0.578009         3.011609
 H        -1.984673         0.537824         1.996679
 H        -0.844131        -0.144350         3.180287
 H        -1.305746         1.526783         3.233768
 H         0.694128         3.115141         0.840493
 H         1.164578         2.753316         2.594152
 H         3.272017         1.990315         1.293705
 H        -0.089137        -1.789012         0.964990
 H        -0.407267        -1.027649        -0.655791
 H         1.091904        -1.891655        -0.464760
 H         1.937931        -0.054583         3.820202
