19
Iteration:  2709
 C        -1.118410         0.773098         2.378407
 C         0.230625         0.983410         1.759706
 C         0.941139         2.309046         1.526510
 C         2.189981         1.463170         1.170162
 O         1.785886         0.769348        -0.085577
 C         0.995130        -0.040161         0.715085
 C         0.305392        -1.242836         0.078595
 C         1.590039         0.281896         2.048796
 O         2.015618        -0.589252         3.091015
 H        -1.960379         1.032792         1.659367
 H        -1.257701        -0.166419         2.818158
 H        -1.230669         1.456802         3.203133
 H         0.594073         2.999565         0.763671
 H         1.076690         2.804258         2.442611
 H         3.315774         1.790285         1.235137
 H        -0.326380        -1.590590         0.833322
 H        -0.340921        -0.967599        -0.753619
 H         0.924767        -2.104171        -0.096976
 H         1.338119        -1.223203         3.388243
