19
Iteration:  2067
 C        -1.181183         0.680581         2.180145
 C         0.282572         1.038582         1.924587
 C         0.877428         2.297133         1.528047
 C         2.191110         1.442493         1.198350
 O         1.837947         0.766909        -0.041364
 C         0.867206        -0.098210         0.794529
 C         0.147632        -1.099395         0.086743
 C         1.611539         0.188052         2.007882
 O         2.228466        -0.622583         3.077205
 H        -1.556825         0.467441         1.130932
 H        -1.392652        -0.137720         2.899333
 H        -1.840685         1.535679         2.411451
 H         0.446784         2.862339         0.651350
 H         1.035420         2.970695         2.445260
 H         3.185983         2.116054         1.356632
 H        -0.561822        -1.608786         0.821784
 H        -0.337437        -0.557126        -0.725260
 H         0.774391        -2.006695        -0.396126
 H         2.197998        -0.108323         3.902438
