19
Iteration:  2534charge 0 multiplicity 1
 C        -1.081761         0.824219         2.509260
 C         0.255601         0.866128         1.767898
 C         0.953126         2.337162         1.442488
 C         2.184563         1.440322         1.139292
 O         1.776419         0.858704        -0.046746
 C         0.957800        -0.062306         0.706640
 C         0.419523        -1.297943         0.094972
 C         1.670188         0.245995         2.009763
 O         1.778608        -0.640297         3.029902
 H        -1.750299         1.712361         2.286303
 H        -1.665099        -0.045659         2.437282
 H        -0.775214         0.968659         3.534259
 H         0.728084         2.918066         0.553872
 H         0.824731         2.892710         2.338468
 H         3.279191         1.922170         1.231638
 H        -0.074976        -1.846081         0.806314
 H        -0.248258        -1.109317        -0.711954
 H         1.201753        -1.837431        -0.400964
 H         1.843061        -0.077941         3.854290
