19
Iteration:  2642
 C        -1.283154         0.772002         2.167009
 C         0.228440         0.852083         1.889059
 C         0.954427         2.316106         1.590074
 C         2.172225         1.419340         1.133670
 O         1.796435         0.728430        -0.038202
 C         1.030871        -0.080420         0.789702
 C         0.170342        -1.092416         0.093695
 C         1.609114         0.266564         2.086504
 O         2.224639        -0.612890         3.028896
 H        -1.756615         0.409244         1.209463
 H        -1.630888         0.248571         3.024214
 H        -1.682349         1.807990         2.224142
 H         0.370524         2.983414         0.938447
 H         1.226977         2.850849         2.477178
 H         3.273053         1.755803         1.287860
 H        -0.594570        -1.556761         0.733529
 H        -0.475478        -0.524789        -0.585418
 H         0.713546        -1.977207        -0.291353
 H         2.202313        -0.054545         3.845665
