19
Iteration:  1184charge 0 multiplicity 1
 C        -1.184593         0.767804         2.381525
 C         0.285023         1.018737         1.792595
 C         0.995599         2.260688         1.571388
 C         2.253269         1.486288         1.195156
 O         1.781101         0.837140        -0.068635
 C         0.992266        -0.012809         0.704205
 C         0.371201        -1.196113         0.148639
 C         1.562908         0.261987         2.049984
 O         1.868909        -0.772279         2.925082
 H        -1.318962         1.448943         3.264889
 H        -2.114397         0.797417         1.722993
 H        -1.301642        -0.280339         2.829132
 H         0.724967         3.022531         0.776026
 H         0.934441         2.989887         2.385259
 H         3.083874         2.117391         1.170448
 H        -0.016836        -1.938531         0.786076
 H        -0.462584        -0.935215        -0.508558
 H         1.299980        -1.675701        -0.377680
 H         2.019828        -0.388062         3.828614
