19
Iteration:  4373
 C        -0.949878         0.643960         2.477415
 C         0.265972         0.913300         1.738722
 C         0.815866         2.316612         1.374936
 C         2.231515         1.431687         1.175175
 O         1.885278         0.729004         0.022461
 C         0.866787        -0.090516         0.727885
 C         0.307446        -1.192150        -0.022373
 C         1.562456         0.347457         2.079156
 O         1.876817        -0.499584         3.112857
 H        -0.938707         1.134919         3.452695
 H        -1.808383         1.085776         1.841499
 H        -1.189688        -0.430786         2.641087
 H         0.491727         2.838455         0.418188
 H         1.014211         2.967771         2.265486
 H         3.182368         1.949201         1.067449
 H        -0.428873        -1.731286         0.554374
 H        -0.219819        -0.856695        -0.933675
 H         1.095566        -1.843054        -0.325447
 H         1.962479         0.008573         3.955287
