19
Iteration:  1465charge 0 multiplicity 1
 C        -1.113734         0.641068         2.278582
 C         0.288181         0.915291         1.722753
 C         0.887228         2.330829         1.532316
 C         2.177200         1.426171         1.154944
 O         1.858801         0.772203        -0.055350
 C         1.009688        -0.097589         0.776517
 C         0.220689        -1.166156         0.113643
 C         1.585397         0.254571         2.075557
 O         2.020944        -0.510866         3.103359
 H        -1.787061         0.980028         1.504007
 H        -1.414431        -0.423599         2.383371
 H        -1.306361         1.164002         3.274768
 H         0.695111         2.941356         0.666519
 H         0.877347         3.043750         2.433562
 H         3.141945         2.003267         1.177884
 H        -0.445725        -1.758052         0.793892
 H        -0.535271        -0.755301        -0.470996
 H         0.856647        -1.771377        -0.574676
 H         1.753558        -0.019413         3.902423
