19
Iteration:   347
 C        -1.221406         0.727663         2.179599
 C         0.290289         0.972665         1.926452
 C         0.824477         2.290438         1.465324
 C         2.152915         1.434744         1.152170
 O         1.843774         0.694586        -0.043593
 C         1.068610        -0.135982         0.739326
 C         0.227141        -1.231238         0.110944
 C         1.478133         0.294223         2.108941
 O         2.265832        -0.412865         3.134364
 H        -1.630643         1.585991         2.867296
 H        -1.934633         0.888833         1.322256
 H        -1.546254        -0.163851         2.685962
 H         0.400308         2.917747         0.599541
 H         1.025642         3.029214         2.268443
 H         3.040071         1.917426         1.265415
 H        -0.525410        -1.533823         0.762557
 H        -0.246329        -0.870477        -0.937984
 H         0.852141        -2.180567        -0.167480
 H         1.546390        -1.085278         3.407030
