19
Iteration:  2922charge 0 multiplicity 1
 C        -1.141763         0.837187         2.511090
 C         0.221306         0.910068         1.744453
 C         0.977316         2.279994         1.360107
 C         2.247913         1.532712         1.120182
 O         1.800435         0.782161        -0.070321
 C         0.941441        -0.005070         0.725542
 C         0.431200        -1.338110         0.179035
 C         1.566130         0.257067         1.950408
 O         1.793275        -0.588967         3.150658
 H        -1.022944         0.946091         3.557885
 H        -1.877015         1.557230         2.075066
 H        -1.619135        -0.169306         2.323522
 H         0.544484         2.875849         0.626015
 H         1.079135         2.953553         2.207960
 H         3.318460         2.132986         1.210817
 H        -0.047878        -1.875917         0.975872
 H        -0.188585        -1.088837        -0.600947
 H         1.231647        -1.950318        -0.207858
 H         2.707037        -0.916745         3.165885
