19
Iteration:   840
 C        -1.161300         2.218557        -0.002491
 C         0.134129         1.775369         0.540039
 O         0.297340         1.803089         2.036743
 C         1.568723         1.091721         1.889368
 C         2.574436         2.144335         1.257350
 C         1.693715         1.878267        -0.032384
 O         1.953228         2.433213        -1.393836
 C         1.003870         0.573965         0.502519
 C         0.830933        -0.737862        -0.148288
 H        -1.940080         1.730849         0.690215
 H        -1.204825         3.301770         0.137921
 H        -1.454148         2.178823        -1.015912
 H         1.863525         0.456069         2.722231
 H         2.699534         3.123310         1.737864
 H         3.602664         1.784087         1.094000
 H         2.748790         1.886963        -1.682162
 H         0.340037        -1.369637         0.563810
 H         0.426836        -0.649710        -1.222690
 H         1.868116        -1.186719        -0.408387
