19
Iteration:   365
 C        -1.076880         2.193239        -0.131352
 C         0.216096         1.827327         0.584792
 O         0.349359         1.968372         2.033879
 C         1.541851         1.066660         1.839368
 C         2.651842         1.936686         1.264027
 C         1.641702         1.924409         0.035245
 O         1.697802         2.389223        -1.300715
 C         1.070272         0.596167         0.440552
 C         0.871877        -0.701345        -0.118207
 H        -1.893276         1.443692         0.150952
 H        -1.458475         3.224104         0.144001
 H        -0.753195         2.137199        -1.170409
 H         1.543262         0.396774         2.742289
 H         2.775708         2.983093         1.818278
 H         3.661947         1.495582         0.905098
 H         2.577978         2.126935        -1.562610
 H         0.227838        -1.293265         0.432566
 H         0.516264        -0.532692        -1.129032
 H         1.736965        -1.444909        -0.054379
