19
Iteration:  1643
 C        -1.065707         2.396960        -0.142634
 C         0.189529         1.817868         0.610755
 O         0.318839         1.847052         2.104639
 C         1.567197         1.086709         1.882066
 C         2.604820         2.039851         1.187144
 C         1.648720         1.932438        -0.011937
 O         1.724017         2.385276        -1.316531
 C         1.089817         0.572754         0.410126
 C         0.882820        -0.817940        -0.068030
 H        -1.855028         1.746040         0.028387
 H        -1.472744         3.357250         0.260619
 H        -0.708695         2.482157        -1.313769
 H         1.787708         0.261373         2.613641
 H         2.917363         2.929685         1.702349
 H         3.572631         1.448672         1.097773
 H         2.436087         1.975527        -1.817749
 H         0.032780        -1.386757         0.396386
 H         0.598816        -0.993876        -1.176459
 H         1.689226        -1.505575         0.172716
