19
Iteration:  1293
 C        -1.080137         2.336330         0.010131
 C         0.230815         1.827901         0.523020
 O         0.294158         1.846288         1.983192
 C         1.530894         1.026827         1.812387
 C         2.534763         2.032998         1.081882
 C         1.607662         1.935860        -0.044814
 O         1.898841         2.471537        -1.233949
 C         0.979111         0.546889         0.431730
 C         0.913894        -0.821590         0.003818
 H        -1.725253         2.023310         0.711817
 H        -1.133403         3.377088         0.084554
 H        -1.450136         1.900854        -0.948363
 H         1.733037         0.382616         2.757293
 H         2.656924         2.987332         1.558854
 H         3.511446         1.572396         0.881793
 H         2.796487         2.071189        -1.427178
 H         0.199519        -1.489314         0.513740
 H         0.556798        -0.942097        -1.062598
 H         1.854997        -1.216922         0.098821
