19
Iteration:  4613charge 0 multiplicity 1
 C        -1.027273         2.332759        -0.020019
 C         0.239908         1.819580         0.637401
 O         0.427210         1.967327         2.123008
 C         1.493009         0.926088         1.919881
 C         2.585216         1.829242         1.135353
 C         1.619722         1.868566        -0.065387
 O         1.840661         2.507904        -1.338174
 C         0.978866         0.539796         0.435761
 C         0.858445        -0.717305        -0.178440
 H        -1.967497         1.821100         0.212218
 H        -1.223473         3.372062         0.080188
 H        -0.934993         2.391153        -1.093301
 H         1.842646         0.337907         2.758231
 H         2.876768         2.676870         1.693518
 H         3.365760         1.127119         0.790484
 H         1.213901         3.208687        -1.495385
 H         0.192043        -1.345223         0.359226
 H         0.211663        -0.720579        -1.060417
 H         1.867022        -1.287381        -0.193846
