19
Iteration:  1242
 C        -0.970355         2.309210        -0.010399
 C         0.279551         1.821021         0.555300
 O         0.329900         1.836122         1.993281
 C         1.510596         1.107928         1.932690
 C         2.526062         2.116936         1.205646
 C         1.660968         1.838227        -0.002636
 O         1.691785         2.390617        -1.278460
 C         1.092774         0.521188         0.455305
 C         0.853164        -0.743458        -0.156647
 H        -2.010518         1.803855         0.091847
 H        -1.059768         3.439626         0.132632
 H        -0.729579         2.239813        -1.177179
 H         1.686159         0.377010         2.796961
 H         2.649737         3.171224         1.491810
 H         3.533678         1.597164         1.075133
 H         2.411297         1.867622        -1.712639
 H         0.035467        -1.275726         0.353173
 H         0.577324        -0.693017        -1.180177
 H         1.816621        -1.438116        -0.076207
