19
Iteration:  1527
 C        -0.957015         2.271317        -0.130916
 C         0.205788         1.777708         0.627514
 O         0.326242         1.800698         2.137617
 C         1.535827         1.123955         1.892466
 C         2.568287         2.185519         1.167611
 C         1.661956         1.889391        -0.031007
 O         1.840693         2.360050        -1.310959
 C         1.043408         0.560100         0.500994
 C         0.738171        -0.778773        -0.224191
 H        -1.964976         2.249280         0.426021
 H        -0.786757         3.408835        -0.124485
 H        -1.009371         1.931526        -1.071963
 H         1.850750         0.503371         2.802885
 H         2.510246         3.172459         1.718566
 H         3.561298         1.822012         1.352976
 H         2.389202         1.703214        -1.770488
 H         0.111289        -1.458940         0.350297
 H         0.128545        -0.555512        -1.092335
 H         1.677534        -1.332383        -0.464730
