19
Iteration:  3466
 C        -0.942697         2.430725        -0.052341
 C         0.254075         1.688619         0.484711
 O         0.271239         1.817518         2.017588
 C         1.564422         1.078005         1.849168
 C         2.553660         2.083389         1.286935
 C         1.622158         1.941341        -0.006958
 O         1.645066         2.463119        -1.258821
 C         1.232600         0.549352         0.402098
 C         0.818918        -0.892659        -0.111198
 H        -1.877385         2.075695         0.164857
 H        -0.973723         3.399106         0.387300
 H        -0.858621         2.554621        -1.089984
 H         1.775293         0.548571         2.717469
 H         2.895294         3.054845         1.676081
 H         3.565895         1.792788         1.021335
 H         2.248997         1.882255        -1.807167
 H         0.167744        -1.346260         0.781823
 H         0.207793        -0.925793        -1.034101
 H         1.639976        -1.702298        -0.208341
