19
Iteration:  2659charge 0 multiplicity 1
 C        -1.176149         2.415495        -0.046016
 C         0.124120         1.843609         0.570596
 O         0.298698         1.761055         2.073217
 C         1.566764         0.975740         1.780884
 C         2.535308         2.069605         1.168065
 C         1.629661         1.928959        -0.001074
 O         1.830824         2.395861        -1.308026
 C         1.083971         0.545599         0.458970
 C         0.999957        -0.794260        -0.090446
 H        -2.065635         1.692645         0.026303
 H        -1.432515         3.491406         0.317451
 H        -0.900025         2.479731        -1.111468
 H         1.830760         0.637060         2.807333
 H         2.644560         3.047072         1.561546
 H         3.511119         1.593411         1.042931
 H         2.807233         2.560102        -1.364321
 H         0.632960        -1.508005         0.698072
 H         0.423060        -0.771893        -1.115329
 H         2.000839        -1.186950        -0.218926
