19
Iteration:  4519charge 0 multiplicity 1
 C        -1.095742         2.386569         0.115756
 C         0.144768         1.785723         0.628112
 O         0.395473         1.877916         2.131526
 C         1.579495         1.044309         1.852377
 C         2.532391         1.986645         1.194928
 C         1.636355         1.990331        -0.011911
 O         1.885310         2.175493        -1.352265
 C         1.055031         0.593245         0.434311
 C         0.811614        -0.697341        -0.351865
 H        -1.961013         1.889566         0.558876
 H        -1.100342         3.515754         0.182559
 H        -0.937630         2.176271        -1.019930
 H         1.985087         0.633704         2.851148
 H         2.817057         2.912990         1.773048
 H         3.398823         1.324817         0.914313
 H         2.179868         3.118451        -1.445394
 H        -0.077683        -1.224462         0.046159
 H         0.364990        -0.525840        -1.332323
 H         1.570447        -1.391693        -0.355214
