19
Iteration:  3068charge 0 multiplicity 1
 C        -1.025783         2.272561        -0.005350
 C         0.171926         1.770433         0.593921
 O         0.279829         1.829532         1.971720
 C         1.570755         1.043923         1.781528
 C         2.499693         2.045099         1.126354
 C         1.623369         1.895652         0.005023
 O         1.920500         2.528905        -1.280111
 C         1.031489         0.606265         0.398331
 C         0.844435        -0.854078         0.012022
 H        -1.931218         1.671871         0.266256
 H        -1.254991         3.311059         0.476430
 H        -0.849211         2.415221        -1.060646
 H         1.796718         0.271434         2.452683
 H         2.595716         3.061905         1.515985
 H         3.537503         1.619170         1.004201
 H         2.908168         2.586379        -1.210160
 H         0.322019        -1.318509         0.838800
 H         0.123875        -0.857170        -0.908480
 H         1.648789        -1.484077        -0.407777
