19
Iteration:   367charge 0 multiplicity 1
 C        -1.081203         2.185087        -0.128810
 C         0.202532         1.813065         0.572479
 O         0.354324         1.980883         2.041401
 C         1.531943         1.068675         1.833370
 C         2.675251         1.940394         1.275403
 C         1.643939         1.924279         0.035610
 O         1.701731         2.388390        -1.293550
 C         1.056528         0.606812         0.436364
 C         0.879547        -0.709292        -0.123155
 H        -1.875118         1.466036         0.145518
 H        -1.505003         3.201634         0.116649
 H        -0.802835         2.137987        -1.169284
 H         1.588480         0.379562         2.667302
 H         2.843605         2.901059         1.804680
 H         3.617184         1.513162         0.931973
 H         2.615374         2.144441        -1.578280
 H         0.213673        -1.311740         0.499056
 H         0.493169        -0.540276        -1.158811
 H         1.703277        -1.372427        -0.058306
