19
Iteration:   169charge 0 multiplicity 1
 C        -0.992018         2.257212        -0.061675
 C         0.279802         1.771824         0.623594
 O         0.291363         1.803049         2.046744
 C         1.571749         1.103754         1.836654
 C         2.536760         2.211191         1.249124
 C         1.626269         1.865468        -0.008270
 O         1.810668         2.426407        -1.352892
 C         1.177870         0.512774         0.416864
 C         0.738748        -0.774598        -0.081372
 H        -1.926032         1.753217         0.377044
 H        -1.021864         3.385464         0.145269
 H        -0.847784         1.919450        -1.139328
 H         1.872013         0.439612         2.694812
 H         2.314703         3.177491         1.598013
 H         3.572515         1.978024         1.184670
 H         2.425400         1.929406        -1.871541
 H        -0.343437        -0.969239         0.435426
 H         0.368376        -0.720946        -1.116581
 H         1.383009        -1.566999        -0.127847
