19
Iteration:  2163charge 0 multiplicity 1
 C        -1.146311         2.073105        -0.048959
 C         0.170556         1.866458         0.557054
 O         0.378669         2.075609         2.086994
 C         1.486930         1.092179         1.897623
 C         2.617298         1.898467         1.150382
 C         1.674218         1.912939         0.000254
 O         1.827931         2.581765        -1.235143
 C         1.027762         0.548072         0.423319
 C         0.899985        -0.839542        -0.197188
 H        -1.717575         1.476370         0.716307
 H        -1.449862         3.086047        -0.139162
 H        -1.061438         1.470683        -1.032464
 H         1.793862         0.575041         2.935915
 H         3.008458         2.824070         1.800430
 H         3.450366         1.156623         0.988825
 H         2.186908         1.968647        -1.945249
 H        -0.136081        -1.253597         0.031229
 H         0.818161        -0.625891        -1.427146
 H         1.731603        -1.426871         0.036310
