19
Iteration:  3302
 C        -0.973349         2.236610        -0.089126
 C         0.302428         1.791590         0.558541
 O         0.347504         1.784476         2.074915
 C         1.535190         1.118500         1.970330
 C         2.532535         2.116738         1.244569
 C         1.669599         1.933375        -0.011463
 O         1.779331         2.400698        -1.369611
 C         1.123318         0.524154         0.477739
 C         0.668401        -0.751865        -0.212391
 H        -1.816590         1.496621         0.251716
 H        -1.261816         3.242848         0.342734
 H        -0.855660         2.439273        -1.189490
 H         1.792111         0.697973         2.923429
 H         2.736141         3.070225         1.792499
 H         3.550250         1.690818         1.213459
 H         2.584312         2.394825        -1.866220
 H        -0.167057        -1.198814         0.425337
 H         0.370700        -0.613127        -1.224042
 H         1.436686        -1.448218        -0.233718
