19
Iteration:  2900charge 0 multiplicity 1
 C        -1.029052         2.395629         0.108848
 C         0.218189         1.791017         0.569797
 O         0.290692         1.872234         1.976907
 C         1.547114         1.069004         1.900310
 C         2.484995         2.198848         1.178920
 C         1.573012         1.886810         0.011218
 O         1.848532         2.291036        -1.249307
 C         1.030594         0.464372         0.412487
 C         0.924077        -0.827464        -0.267971
 H        -1.922091         1.715958         0.296588
 H        -1.328274         3.380888         0.429673
 H        -0.953675         2.440977        -1.048843
 H         2.038417         0.492917         2.822354
 H         2.570537         3.229842         1.706673
 H         3.615183         1.958040         1.116833
 H         2.826830         2.164239        -1.210021
 H         0.142307        -1.595239         0.120653
 H         0.598029        -0.560079        -1.447969
 H         1.886286        -1.215995        -0.411132
