19
Iteration:  3042charge 0 multiplicity 1
 C        -1.060988         2.344796        -0.118268
 C         0.216626         1.813686         0.451154
 O         0.342508         1.734068         2.128891
 C         1.588962         1.024967         1.874755
 C         2.519305         2.096612         1.301819
 C         1.677286         1.963945         0.014373
 O         1.816684         2.501414        -1.421297
 C         1.103285         0.581793         0.374298
 C         0.768615        -0.925613        -0.018474
 H        -1.949857         1.842059         0.208971
 H        -1.147059         3.322957         0.184974
 H        -0.954002         2.361071        -1.206623
 H         1.881640         0.224259         2.626412
 H         2.532652         3.092489         1.834866
 H         3.608948         1.932599         1.222432
 H         2.745293         2.825670        -1.398325
 H         0.198732        -1.372306         0.799963
 H         0.011759        -0.886798        -0.780727
 H         1.463936        -1.546895        -0.394991
