19
Iteration:  4284charge 0 multiplicity 1
 C        -1.072725         2.431133         0.047849
 C         0.140205         1.867569         0.624383
 O         0.396799         1.845299         2.055763
 C         1.618611         1.074491         1.828854
 C         2.581085         1.952688         1.190398
 C         1.631523         1.890508         0.021437
 O         1.861233         2.247068        -1.327651
 C         1.057215         0.573491         0.390836
 C         0.773686        -0.779801        -0.241282
 H        -2.120658         2.008263         0.433192
 H        -1.178832         3.506773         0.459758
 H        -1.060691         2.535411        -1.050598
 H         1.820567         0.487981         2.740053
 H         2.712079         3.013041         1.602724
 H         3.504459         1.338383         1.206771
 H         1.886109         3.214334        -1.313604
 H         0.186894        -1.373126         0.411691
 H         0.309071        -0.723903        -1.203286
 H         1.758993        -1.249813        -0.310695
