19
Iteration:  1911
 C        -1.098858         2.221029        -0.071154
 C         0.147502         1.879591         0.636047
 O         0.287014         1.886007         2.060205
 C         1.533804         1.017684         1.851592
 C         2.661465         2.004818         1.159288
 C         1.650938         1.921532        -0.038823
 O         1.889519         2.427801        -1.330794
 C         0.996057         0.639250         0.488360
 C         0.857646        -0.742276        -0.080685
 H        -2.043880         1.656692         0.386689
 H        -1.338905         3.293343        -0.284041
 H        -0.969726         1.737787        -1.010751
 H         1.691312         0.243248         2.696191
 H         3.019433         2.900171         1.706740
 H         3.478672         1.390131         0.941725
 H         2.675676         2.071903        -1.735124
 H         0.390923        -1.389504         0.688230
 H         0.174484        -0.731350        -1.047312
 H         1.807799        -1.114432        -0.365848
