19
Iteration:  2652charge 0 multiplicity 1
 C        -1.093300         2.393832         0.010968
 C         0.157755         1.796012         0.527132
 O         0.274937         1.732677         2.032090
 C         1.582343         1.069977         1.821655
 C         2.494885         2.057456         1.165017
 C         1.584089         1.925408        -0.026075
 O         1.873527         2.415783        -1.313069
 C         1.053421         0.584449         0.452377
 C         0.983487        -0.791224        -0.075821
 H        -1.980797         1.788761         0.273306
 H        -1.325806         3.299765         0.468185
 H        -0.989323         2.417568        -1.121304
 H         1.860525         0.325412         2.706137
 H         2.407201         3.114782         1.664821
 H         3.523040         1.593525         0.983263
 H         2.834655         2.558882        -1.464344
 H         0.425161        -1.408383         0.626111
 H         0.351161        -0.853753        -0.877350
 H         2.057218        -1.277417        -0.290778
