19
Iteration:  4779charge 0 multiplicity 1
 C        -1.005686         2.439213         0.099000
 C         0.104468         1.802161         0.693921
 O         0.431734         1.851920         2.080627
 C         1.548537         0.979843         1.841851
 C         2.542484         1.903953         1.170775
 C         1.570986         2.021461        -0.056461
 O         1.823380         2.296284        -1.399487
 C         0.917559         0.572170         0.533521
 C         0.975079        -0.733549        -0.283541
 H        -1.986512         2.123548         0.520610
 H        -1.012110         3.591686         0.241802
 H        -0.936710         2.304976        -1.033545
 H         1.741732         0.231433         2.672103
 H         2.854391         2.733917         1.806010
 H         3.403283         1.191893         0.972189
 H         1.640272         3.194824        -1.767164
 H         0.322954        -1.419512         0.134820
 H         0.687787        -0.561770        -1.314578
 H         2.056917        -1.224133        -0.138278
