19
Iteration:   790
 C        -1.075567         2.149545        -0.135092
 C         0.175040         1.812827         0.615927
 O         0.350619         2.021109         2.010105
 C         1.538868         1.095065         1.925436
 C         2.647470         1.915706         1.241981
 C         1.688372         1.946859         0.033989
 O         1.699924         2.407102        -1.290803
 C         1.015281         0.533063         0.580666
 C         0.918222        -0.707138        -0.255769
 H        -1.832730         1.401193        -0.027081
 H        -1.510622         3.165787         0.034968
 H        -0.824415         2.172854        -1.230832
 H         1.804582         0.497324         2.907673
 H         2.589818         2.929489         1.730303
 H         3.678858         1.465246         1.169212
 H         2.362288         1.962221        -1.790836
 H         0.507072        -1.642855         0.213652
 H         0.294728        -0.370894        -1.027543
 H         1.919885        -1.006362        -0.587499
