19
Iteration:  4110
 C        -1.097155         2.412642         0.085285
 C         0.223992         1.870845         0.614528
 O         0.417041         1.843123         2.134215
 C         1.502183         1.013198         1.846183
 C         2.547881         1.981363         1.152037
 C         1.583466         1.924555         0.032318
 O         1.969380         2.183895        -1.361994
 C         0.999251         0.579195         0.423494
 C         0.830965        -0.677407        -0.278069
 H        -1.950268         1.725622         0.364564
 H        -1.395226         3.375747         0.425708
 H        -1.241258         2.612515        -0.939906
 H         1.839383         0.324312         2.677731
 H         2.735162         2.909856         1.696437
 H         3.441559         1.550075         0.759303
 H         1.579752         3.065904        -1.461749
 H         0.010498        -1.312129         0.231410
 H         0.558937        -0.377098        -1.363849
 H         1.858049        -1.204001        -0.272305
