19
Iteration:  4143
 C        -1.107879         2.358248         0.148634
 C         0.190927         1.782925         0.617767
 O         0.368908         1.922199         2.118186
 C         1.506624         1.060568         1.909753
 C         2.576487         1.959864         1.220187
 C         1.686962         1.913780        -0.043131
 O         1.991139         2.237463        -1.372668
 C         1.083406         0.566238         0.435598
 C         0.772892        -0.637296        -0.357071
 H        -1.998348         1.745066         0.535073
 H        -1.336337         3.349650         0.488012
 H        -1.148446         2.287125        -0.931949
 H         1.684720         0.447321         2.832730
 H         2.793637         2.944388         1.655696
 H         3.473210         1.475133         0.871664
 H         1.143363         2.517621        -1.740168
 H        -0.169909        -1.228560         0.006984
 H         0.362720        -0.392234        -1.426212
 H         1.634554        -1.387826        -0.417466
