19
Iteration:  2296
 C        -1.081276         2.189843        -0.106319
 C         0.110993         1.817433         0.663323
 O         0.341667         1.916965         2.059337
 C         1.515213         0.989823         1.851652
 C         2.594670         1.886485         1.140883
 C         1.565175         2.015541         0.056701
 O         1.831608         2.473380        -1.297446
 C         1.039240         0.683451         0.505209
 C         1.020723        -0.684302        -0.134478
 H        -1.729471         1.376928        -0.093463
 H        -1.596753         3.086587         0.141522
 H        -0.732577         2.307476        -1.197938
 H         1.648382         0.186453         2.477814
 H         3.028965         2.868389         1.481645
 H         3.439616         1.246924         0.748921
 H         1.854336         1.571518        -1.725577
 H         0.581317        -1.368350         0.624152
 H         0.274998        -0.867606        -0.998166
 H         1.975850        -1.048625        -0.383424
