19
Iteration:  1483
 C        -1.012058         2.327287        -0.130032
 C         0.229638         1.777518         0.571263
 O         0.365569         1.982925         2.033424
 C         1.451181         1.049361         1.888659
 C         2.632108         1.915077         1.255016
 C         1.695991         1.963593         0.028749
 O         1.695306         2.518188        -1.347622
 C         0.987412         0.498595         0.484787
 C         0.877373        -0.896840        -0.077576
 H        -1.987810         1.979190         0.333418
 H        -1.118962         3.484553        -0.184215
 H        -1.036347         1.972512        -1.085162
 H         1.766430         0.268321         2.674636
 H         3.053270         2.914660         1.556586
 H         3.430125         1.245044         0.957690
 H         2.531625         2.502952        -1.825444
 H         0.259887        -1.597191         0.476807
 H         0.503694        -0.818790        -1.098296
 H         1.972166        -1.207764        -0.045830
