19
Iteration:  2123charge 0 multiplicity 1
 C        -1.050904         2.102112        -0.164730
 C         0.231787         1.730025         0.632172
 O         0.378530         1.921434         2.048421
 C         1.586839         1.087196         1.872525
 C         2.576581         2.056112         1.193205
 C         1.620575         1.995295         0.008525
 O         1.772478         2.400021        -1.253676
 C         1.154722         0.535570         0.529722
 C         0.715226        -0.705046        -0.178591
 H        -1.914476         1.593022         0.152195
 H        -1.245539         3.177457        -0.057778
 H        -0.977339         1.924778        -1.331662
 H         1.891450         0.619242         2.804939
 H         2.585834         2.994784         1.670893
 H         3.544265         1.722826         0.857405
 H         2.683171         2.640904        -1.363790
 H        -0.065331        -1.223028         0.369709
 H         0.294745        -0.347393        -1.046084
 H         1.466185        -1.493385        -0.499203
