19
Iteration:  3577charge 0 multiplicity 1
 C        -1.019222         2.211043        -0.032685
 C         0.259055         1.809291         0.599965
 O         0.327103         1.843351         2.068687
 C         1.562881         1.044253         1.889916
 C         2.568382         2.159067         1.260911
 C         1.614652         1.985352         0.042050
 O         1.845451         2.302154        -1.327643
 C         1.063492         0.589615         0.467839
 C         0.764169        -0.689038        -0.338960
 H        -1.723596         1.745003         0.601456
 H        -1.227025         3.268224         0.205099
 H        -1.100667         1.793542        -0.983762
 H         1.964542         0.563348         2.814470
 H         2.519465         3.123116         1.839779
 H         3.592836         1.809038         1.188251
 H         2.307327         1.570498        -1.729497
 H        -0.150424        -1.286956         0.157005
 H         0.358505        -0.516601        -1.355010
 H         1.635172        -1.341072        -0.283556
