19
Iteration:  3782charge 0 multiplicity 1
 C        -1.097530         2.115009        -0.076311
 C         0.157606         1.795598         0.644766
 O         0.472553         1.946867         2.102394
 C         1.556589         1.090383         1.883845
 C         2.514544         1.940078         1.156329
 C         1.523986         2.047800        -0.023969
 O         1.881515         2.368990        -1.239924
 C         1.022264         0.587694         0.453457
 C         0.821527        -0.693818        -0.240660
 H        -1.871283         1.437866         0.427503
 H        -1.287383         3.166466        -0.091854
 H        -0.894147         1.839837        -1.138216
 H         1.776356         0.542802         2.830506
 H         2.988051         2.893136         1.513319
 H         3.327436         1.244790         0.924859
 H         2.745897         2.761878        -1.349139
 H        -0.009444        -1.356037         0.120695
 H         0.422695        -0.439833        -1.295760
 H         1.843439        -1.363781        -0.323875
