19
Iteration:    75charge 0 multiplicity 1
 C        -1.041583         2.311667        -0.041161
 C         0.175869         1.816968         0.575495
 O         0.311887         2.006936         2.077989
 C         1.497764         1.076686         1.883414
 C         2.597290         2.029913         1.130247
 C         1.577774         1.930765         0.050365
 O         1.792412         2.326364        -1.262102
 C         0.995042         0.575924         0.495755
 C         0.982194        -0.846011        -0.259932
 H        -1.858498         1.743313         0.390578
 H        -1.201568         3.319245         0.297680
 H        -1.020770         2.154396        -1.071321
 H         1.773179         0.502208         2.881603
 H         2.895799         3.036067         1.586286
 H         3.505140         1.393067         0.853280
 H         2.547608         1.727231        -1.556388
 H         0.428426        -1.526386         0.291842
 H         0.445976        -0.808002        -1.251530
 H         2.090553        -1.247779        -0.502188
