19
Iteration:  2143
 C        -1.055978         2.015645        -0.064867
 C         0.248605         1.785542         0.588515
 O         0.370622         2.014334         1.996936
 C         1.603032         1.175378         1.977528
 C         2.614436         1.987811         1.145426
 C         1.598411         1.849536        -0.047102
 O         1.785250         2.573081        -1.202705
 C         0.992069         0.497630         0.554311
 C         0.763187        -0.745580        -0.261674
 H        -1.864881         1.489747         0.390495
 H        -1.178369         3.064910        -0.118295
 H        -0.854615         1.670748        -1.189745
 H         1.678173         0.560964         2.934892
 H         2.965772         3.044871         1.347845
 H         3.458935         1.289091         1.075669
 H         2.680702         2.273364        -1.452625
 H        -0.099552        -1.358995         0.101165
 H         0.586113        -0.510564        -1.372438
 H         1.660254        -1.332760        -0.143934
