19
Iteration:  1130charge 0 multiplicity 1
 C        -1.050619         2.307994         0.074683
 C         0.213551         1.799239         0.534177
 O         0.267839         1.830109         2.006311
 C         1.513802         1.050588         1.832400
 C         2.513545         2.158400         1.184022
 C         1.644620         1.979646        -0.007866
 O         1.944598         2.427638        -1.305181
 C         1.078134         0.530154         0.434285
 C         0.830896        -0.863668        -0.128582
 H        -1.796403         1.733212         0.547397
 H        -1.198568         3.372978         0.337797
 H        -1.141175         1.985383        -1.076728
 H         1.781118         0.489961         2.767568
 H         2.469675         3.166758         1.591390
 H         3.569994         1.874816         0.941385
 H         2.468348         1.685558        -1.604402
 H         0.103604        -1.432823         0.429162
 H         0.304877        -0.742632        -1.029294
 H         1.809529        -1.432302        -0.222610
