19
Iteration:  4394
 C        -1.082135         2.426098         0.008418
 C         0.271283         1.854657         0.575350
 O         0.333692         1.810363         2.150723
 C         1.574078         1.016399         1.762568
 C         2.626109         2.034834         1.225257
 C         1.684734         1.925414         0.040306
 O         1.820108         2.288003        -1.375573
 C         1.051573         0.595156         0.416712
 C         0.719719        -0.781407        -0.165250
 H        -1.742699         1.705204         0.588850
 H        -0.972392         3.488354        -0.007700
 H        -1.198389         2.214196        -1.074786
 H         2.035990         0.335479         2.429349
 H         2.712261         2.967499         1.830430
 H         3.569048         1.492419         0.985524
 H         1.992092         3.249060        -1.371476
 H        -0.068729        -1.247856         0.292235
 H         0.343666        -0.698251        -1.166576
 H         1.422246        -1.571719        -0.287041
