19
Iteration:  2751charge 0 multiplicity 1
 C        -1.074316         2.180145        -0.018999
 C         0.195390         1.831140         0.631911
 O         0.314635         1.814802         2.091224
 C         1.496348         1.002001         1.837447
 C         2.529072         2.116702         1.238212
 C         1.557826         2.004927         0.008019
 O         1.925092         2.356300        -1.335766
 C         1.065651         0.574835         0.455788
 C         0.898323        -0.627711        -0.257012
 H        -1.917899         1.669468         0.459410
 H        -1.304413         3.240383         0.055879
 H        -1.042617         1.861944        -1.106439
 H         1.929466         0.418137         2.628478
 H         2.515006         3.130345         1.833847
 H         3.556001         1.746146         0.947419
 H         2.539480         1.649204        -1.569502
 H         0.108155        -1.221022         0.161904
 H         0.680790        -0.443311        -1.227633
 H         1.775118        -1.401228        -0.033372
