19
Iteration:   702
 C        -1.108600         2.290698         0.054719
 C         0.190561         1.824401         0.547028
 O         0.267214         1.830666         1.963690
 C         1.521961         1.134945         1.848107
 C         2.539411         2.059882         1.231626
 C         1.683228         1.977341        -0.022577
 O         1.865641         2.513166        -1.376842
 C         1.046418         0.534907         0.444089
 C         0.941506        -0.947692        -0.075303
 H        -1.895948         1.711601         0.616538
 H        -1.083114         3.392934         0.310586
 H        -1.237997         2.258570        -1.034458
 H         1.747075         0.234918         2.640510
 H         2.646068         3.086011         1.673391
 H         3.557343         1.650384         1.160231
 H         2.626152         1.994670        -1.626405
 H        -0.008611        -1.249054         0.441117
 H         0.821752        -1.043675        -1.109551
 H         1.620746        -1.654852         0.177675
