19
Iteration:  4014charge 0 multiplicity 1
 C        -0.988765         2.388889        -0.037087
 C         0.218210         1.875976         0.620872
 O         0.333575         1.781911         2.068381
 C         1.605773         0.990839         1.799347
 C         2.613896         1.996400         1.184074
 C         1.602214         1.875698        -0.061482
 O         1.837021         2.516359        -1.210499
 C         1.103933         0.611857         0.449440
 C         0.711128        -0.854889        -0.156687
 H        -1.809309         1.898011         0.453926
 H        -1.296802         3.489908        -0.197831
 H        -1.141533         2.070609        -1.074936
 H         1.891952         0.523605         2.758971
 H         2.709133         2.939233         1.734410
 H         3.622513         1.646477         0.948957
 H         1.790426         1.927289        -2.000550
 H         0.082064        -1.421326         0.492702
 H         0.172600        -0.670396        -1.076971
 H         1.554878        -1.421247        -0.359955
