19
Iteration:  3321
 C        -1.023608         2.179815        -0.023996
 C         0.224751         1.809240         0.708438
 O         0.224512         1.802545         2.082249
 C         1.633974         1.111982         1.846968
 C         2.558528         2.162686         1.169147
 C         1.679208         1.933963         0.029468
 O         1.876550         2.305706        -1.308765
 C         1.109515         0.595145         0.395591
 C         0.709021        -0.659520        -0.220330
 H        -1.833921         1.617930         0.258820
 H        -1.375451         3.171464         0.245629
 H        -0.888151         2.119772        -1.120334
 H         1.932540         0.444266         2.715063
 H         2.746693         3.205718         1.506785
 H         3.585087         1.689715         1.078988
 H         2.694273         1.823384        -1.525471
 H        -0.350353        -0.988572         0.093274
 H         0.385974        -0.480139        -1.317330
 H         1.485064        -1.566769        -0.189765
