19
Iteration:  4266charge 0 multiplicity 1
 C        -0.980976         2.439910         0.044427
 C         0.188655         1.740309         0.652395
 O         0.372772         1.878512         2.091543
 C         1.509277         0.969396         1.812254
 C         2.579808         2.075745         1.101273
 C         1.645383         1.840345         0.001191
 O         1.876094         2.347088        -1.313279
 C         0.982884         0.532107         0.393042
 C         0.786740        -0.744791        -0.149391
 H        -1.911458         2.107288         0.371557
 H        -1.065374         3.417267         0.396899
 H        -0.908369         2.260009        -1.035768
 H         1.802415         0.248152         2.520423
 H         2.593311         2.961891         1.682599
 H         3.574250         1.793487         0.715506
 H         2.283356         3.223927        -1.303979
 H         0.059045        -1.389075         0.494662
 H         0.182710        -0.659010        -1.154323
 H         1.566060        -1.449945        -0.420866
