19
Iteration:  3034charge 0 multiplicity 1
 C        -1.030850         2.349679        -0.172934
 C         0.198488         1.744797         0.593133
 O         0.330202         1.755771         2.071572
 C         1.565589         1.027820         1.858981
 C         2.545649         2.101314         1.314244
 C         1.678813         1.975348        -0.014282
 O         1.788853         2.491606        -1.395337
 C         1.147840         0.533207         0.438359
 C         0.764336        -0.849511        -0.050575
 H        -1.959563         1.807667         0.187875
 H        -1.072746         3.434003         0.157668
 H        -1.054794         2.294218        -1.218796
 H         1.978928         0.326854         2.422619
 H         2.504739         3.058334         1.861340
 H         3.616261         1.738422         1.170136
 H         2.679297         2.818055        -1.595502
 H         0.209999        -1.347865         0.746722
 H        -0.083033        -0.748425        -0.852286
 H         1.533516        -1.566041        -0.324955
