19
Iteration:  1264charge 0 multiplicity 1
 C        -1.034565         2.388286        -0.047617
 C         0.079170         1.726176         0.632264
 O         0.288135         1.835267         2.091034
 C         1.620901         1.084435         1.811662
 C         2.533649         2.082381         1.205481
 C         1.681457         1.947450        -0.082788
 O         1.836088         2.416637        -1.363228
 C         1.096288         0.556981         0.404049
 C         0.851819        -0.856888        -0.054842
 H        -2.092367         2.005114         0.404468
 H        -1.024236         3.542412         0.046835
 H        -1.307165         2.261216        -1.201980
 H         1.849726         0.393128         2.718455
 H         2.439411         2.972939         1.859840
 H         3.638601         1.764519         1.225491
 H         2.742273         2.080269        -1.431807
 H         0.019999        -1.400752         0.399003
 H         0.676465        -0.848535        -1.093866
 H         1.818154        -1.577105        -0.013904
