19
Iteration:   710charge 0 multiplicity 1
 C        -1.055999         2.316019         0.073633
 C         0.250989         1.823804         0.573020
 O         0.238732         1.827302         1.977555
 C         1.511071         1.065802         1.797203
 C         2.506696         2.129188         1.231573
 C         1.635964         1.923461        -0.064911
 O         1.868359         2.446044        -1.314690
 C         1.084857         0.584940         0.364949
 C         0.902743        -0.892693        -0.051993
 H        -1.871428         1.717736         0.614851
 H        -1.259203         3.327748         0.424326
 H        -1.046843         2.123791        -0.976834
 H         1.703665         0.368199         2.716296
 H         2.612088         3.197917         1.721563
 H         3.502401         1.612741         1.057210
 H         2.615369         2.141148        -1.802589
 H         0.017831        -1.267327         0.370639
 H         0.805539        -1.145028        -1.133139
 H         1.862805        -1.482657         0.292492
