19
Iteration:  1512charge 0 multiplicity 1
 C        -0.946956         2.379718        -0.094625
 C         0.241130         1.755977         0.615780
 O         0.298830         1.907370         1.995243
 C         1.569048         1.070291         1.905284
 C         2.530295         2.092280         1.212554
 C         1.637852         1.829285         0.056900
 O         1.739052         2.396024        -1.222832
 C         1.134771         0.510588         0.446604
 C         0.795326        -0.784614        -0.168543
 H        -1.804305         2.030573         0.341794
 H        -0.959709         3.410826        -0.387398
 H        -1.026962         1.796568        -1.135672
 H         1.899609         0.426418         2.799801
 H         2.584985         3.121832         1.406276
 H         3.489927         1.711604         0.799594
 H         2.384505         1.978682        -1.783059
 H         0.146755        -1.348016         0.535404
 H         0.203944        -0.545006        -1.179109
 H         1.630853        -1.310347        -0.453191
