19
Iteration:  3178
 C        -0.968741         2.327440         0.031023
 C         0.153731         1.724302         0.612178
 O         0.353219         1.879735         2.043453
 C         1.464088         1.126620         1.882237
 C         2.448425         2.101456         1.220583
 C         1.656207         1.848543        -0.000605
 O         1.810311         2.274545        -1.354630
 C         1.068225         0.525202         0.498030
 C         0.918856        -0.675312        -0.287967
 H        -1.829388         2.105538         0.622803
 H        -0.863739         3.444446         0.183850
 H        -1.146649         2.062117        -1.037118
 H         1.769614         0.597407         2.874288
 H         2.530811         3.056446         1.810804
 H         3.542740         1.749243         1.112918
 H         2.709979         2.006286        -1.542775
 H         0.042708        -1.260176        -0.020625
 H         0.657951        -0.390975        -1.340737
 H         1.770692        -1.216493        -0.171995
