19
Iteration:   424
 C        -1.134596         2.179867         0.010192
 C         0.180303         1.739484         0.558345
 O         0.337874         1.944484         2.007116
 C         1.534632         1.144017         1.887570
 C         2.548683         2.042104         1.225497
 C         1.672741         1.935048        -0.021080
 O         1.962210         2.462929        -1.267482
 C         1.031592         0.525677         0.442196
 C         0.815437        -0.823863        -0.175348
 H        -2.003766         1.797569         0.441381
 H        -1.194799         3.259596         0.020092
 H        -1.375005         2.068337        -1.055226
 H         1.835747         0.663051         2.771475
 H         2.644404         3.057397         1.511780
 H         3.511432         1.660692         1.037379
 H         2.550211         1.805536        -1.690253
 H         0.316973        -1.501535         0.559691
 H         0.113405        -0.806860        -1.050631
 H         1.714825        -1.056817        -0.525891
