19
Iteration:   157charge 0 multiplicity 1
 C        -1.049857         2.242141        -0.081877
 C         0.139635         1.703975         0.585148
 O         0.360358         1.826037         2.045054
 C         1.620619         1.064860         1.860121
 C         2.535598         2.179315         1.172336
 C         1.727437         1.906764        -0.074579
 O         1.842651         2.475348        -1.285507
 C         1.086224         0.557983         0.523509
 C         0.710627        -0.809685        -0.081128
 H        -2.017699         1.813964         0.240021
 H        -1.125118         3.352133        -0.002913
 H        -0.992389         2.186503        -1.219865
 H         2.026145         0.502056         2.660592
 H         2.430851         3.131384         1.627724
 H         3.572974         1.928810         1.176010
 H         2.447017         1.896208        -1.810660
 H        -0.282356        -1.309723         0.321584
 H         0.706556        -0.542123        -1.122520
 H         1.440626        -1.556812         0.117823
