19
Iteration:  2959
 C        -1.135225         2.158841         0.013027
 C         0.246426         1.916854         0.556689
 O         0.327752         1.977154         2.051607
 C         1.459944         1.000808         1.874298
 C         2.597598         1.926746         1.181002
 C         1.615330         2.003716         0.038985
 O         1.826602         2.332691        -1.229886
 C         1.011548         0.640450         0.425791
 C         0.981118        -0.653986        -0.253496
 H        -1.811277         1.434283         0.532171
 H        -1.340500         3.265451         0.057528
 H        -1.185867         1.834753        -1.008384
 H         1.691339         0.387285         2.648729
 H         2.853941         2.775428         1.680272
 H         3.326093         1.239750         0.882846
 H         2.284922         1.565353        -1.656072
 H         0.172383        -1.347554        -0.044154
 H         0.951836        -0.380083        -1.329480
 H         1.959138        -1.271036         0.038606
