19
Iteration:  3687charge 0 multiplicity 1
 C        -1.018515         2.307268         0.029342
 C         0.197131         1.841844         0.631150
 O         0.290146         1.833274         2.053467
 C         1.534378         1.067217         1.919106
 C         2.515049         1.960882         1.080590
 C         1.550673         1.916965        -0.075193
 O         1.887932         2.489610        -1.257704
 C         0.988174         0.590525         0.363171
 C         0.932516        -0.813267        -0.084455
 H        -1.693323         1.471691         0.079578
 H        -1.388329         3.471380         0.269110
 H        -0.826901         2.523352        -0.973979
 H         1.926917         0.305347         2.675139
 H         2.727325         3.019475         1.467480
 H         3.410816         1.439394         0.776912
 H         2.619707         2.107640        -1.816686
 H         0.215361        -1.422962         0.572026
 H         0.566540        -0.912702        -1.117351
 H         1.888831        -1.252251        -0.044806
