19
Iteration:   965
 C        -1.022493         2.244616         0.066192
 C         0.230730         1.827262         0.597298
 O         0.304403         1.931662         2.057035
 C         1.476445         1.135227         1.866325
 C         2.460056         2.044478         1.202983
 C         1.590040         1.956226        -0.006798
 O         1.873974         2.347584        -1.315815
 C         1.084618         0.551500         0.489703
 C         0.931836        -0.807603        -0.308582
 H        -1.771326         1.612144         0.332687
 H        -1.361135         3.178084         0.430888
 H        -1.028079         2.255033        -1.044404
 H         1.638416         0.591857         2.779360
 H         2.620768         3.065340         1.617707
 H         3.427975         1.561725         1.016192
 H         2.665413         1.827831        -1.666641
 H         0.340063        -1.452348         0.389424
 H         0.314405        -0.696742        -1.123122
 H         1.978123        -1.456409        -0.496163
