19
Iteration:  2575charge 0 multiplicity 1
 C        -0.960503         2.042057        -0.170936
 C         0.192669         1.871285         0.746113
 O         0.303580         1.938443         2.175479
 C         1.563968         1.046070         1.847134
 C         2.606790         1.932605         1.202277
 C         1.535954         2.024453         0.041757
 O         1.725274         2.504826        -1.344947
 C         1.094924         0.615378         0.433642
 C         0.843605        -0.713925        -0.202623
 H        -1.829984         1.398282         0.124045
 H        -1.150939         3.048132        -0.353258
 H        -0.738565         1.652845        -1.210219
 H         1.694811         0.527555         2.929063
 H         3.199722         2.849528         1.690039
 H         3.388225         1.139117         0.877538
 H         2.516976         2.045320        -1.654611
 H        -0.044679        -1.268232         0.030529
 H         0.764882        -0.606345        -1.230586
 H         1.894092        -1.309121        -0.268026
