19
Iteration:  2675
 C        -1.130587         2.377464        -0.144090
 C         0.139330         1.819210         0.652258
 O         0.352880         1.870930         2.098135
 C         1.522142         1.077331         1.915078
 C         2.603902         2.007036         1.193076
 C         1.572017         1.931542         0.034387
 O         1.740066         2.370760        -1.286591
 C         1.024666         0.607589         0.404209
 C         1.065385        -0.858328        -0.196548
 H        -1.987358         1.741824        -0.069413
 H        -1.487736         3.240946         0.335797
 H        -0.851052         2.529449        -1.215723
 H         1.743569         0.200573         2.553742
 H         2.795505         2.998998         1.786347
 H         3.508583         1.412266         0.886084
 H         2.671860         2.528631        -1.514698
 H         0.486675        -1.550338         0.385546
 H         0.564682        -0.925965        -1.099947
 H         2.192333        -1.214538        -0.347167
