19
Iteration:  1639charge 0 multiplicity 1
 C        -1.071400         2.415353        -0.137001
 C         0.174417         1.828640         0.600872
 O         0.343297         1.839779         2.088969
 C         1.552880         1.121609         1.890829
 C         2.639676         2.009187         1.179405
 C         1.640348         1.936673        -0.004627
 O         1.733084         2.377052        -1.286066
 C         1.057168         0.586966         0.412592
 C         0.878927        -0.847874        -0.089957
 H        -1.846739         1.534341        -0.002782
 H        -1.595238         3.306464         0.144750
 H        -0.789727         2.435539        -1.174795
 H         1.720869         0.354793         2.588654
 H         2.912118         2.975276         1.710554
 H         3.602430         1.472867         0.977588
 H         2.496600         2.025775        -1.810515
 H         0.035643        -1.338969         0.416055
 H         0.696153        -0.912921        -1.111066
 H         1.772248        -1.553786         0.173857
