19
Iteration:  4161
 C        -1.043662         2.239500         0.046260
 C         0.238920         1.902356         0.588131
 O         0.406778         1.909527         2.024842
 C         1.580466         1.020966         1.867152
 C         2.576865         1.944365         1.137624
 C         1.551102         1.925105         0.038393
 O         1.974745         2.292214        -1.269525
 C         0.992391         0.535533         0.507860
 C         0.726472        -0.654338        -0.297480
 H        -1.852377         1.780490         0.693698
 H        -1.133600         3.326100         0.310508
 H        -1.374857         2.430817        -0.963398
 H         1.984249         0.437124         2.732524
 H         2.812052         2.902870         1.711023
 H         3.454130         1.259412         1.053080
 H         1.265948         2.698992        -1.762457
 H        -0.115206        -1.180108         0.024427
 H         0.442699        -0.256900        -1.211612
 H         1.650301        -1.226596        -0.347079
