19
Iteration:   406
 C        -1.078125         2.146385         0.017888
 C         0.168025         1.839135         0.565012
 O         0.304009         2.006322         1.991845
 C         1.473388         1.074220         1.891003
 C         2.567100         1.953266         1.095008
 C         1.547890         1.872898        -0.083812
 O         1.985107         2.509754        -1.245874
 C         1.025931         0.548739         0.537188
 C         0.893818        -0.726467        -0.119954
 H        -1.766071         1.383986         0.529548
 H        -1.393605         3.191496         0.212441
 H        -1.018763         1.817447        -1.058560
 H         1.765458         0.375657         2.801161
 H         2.760416         2.933174         1.640703
 H         3.434010         1.270796         0.811884
 H         2.689238         1.993248        -1.704276
 H         0.320487        -1.489815         0.545915
 H         0.194393        -0.634020        -0.921886
 H         1.906847        -1.212804        -0.639369
