19
Iteration:  2302
 C        -1.091683         2.147297        -0.088214
 C         0.116564         1.851753         0.684048
 O         0.344199         1.941254         2.023335
 C         1.582532         1.027817         1.865592
 C         2.582141         1.922622         1.157066
 C         1.556700         2.002606         0.001233
 O         1.895540         2.487219        -1.255957
 C         1.013985         0.659037         0.463935
 C         0.969686        -0.729002        -0.145778
 H        -1.984639         1.345603         0.049732
 H        -1.709623         3.033446         0.276532
 H        -1.002970         2.228886        -1.174389
 H         1.580417         0.127388         2.710758
 H         3.076800         2.756171         1.683476
 H         3.321558         1.266143         0.740641
 H         1.907004         1.749233        -1.876455
 H         0.496571        -1.429800         0.560476
 H         0.412002        -0.926523        -1.098117
 H         2.007355        -1.203704        -0.418495
