19
Iteration:  3801charge 0 multiplicity 1
 C        -1.126230         2.227118         0.020601
 C         0.176259         1.883391         0.622065
 O         0.315634         1.959712         2.049212
 C         1.532017         0.990561         1.826208
 C         2.635112         1.940414         1.120305
 C         1.612603         1.894764        -0.039891
 O         1.862807         2.407906        -1.271004
 C         0.971579         0.592251         0.476129
 C         0.897586        -0.743560        -0.184120
 H        -1.842641         1.486261         0.474727
 H        -1.254123         3.278246         0.082480
 H        -1.039701         1.923849        -1.119695
 H         1.782689         0.348816         2.653923
 H         2.774025         2.864853         1.618715
 H         3.609963         1.527830         0.774642
 H         2.589919         3.046007        -1.063935
 H         0.327343        -1.398137         0.531981
 H         0.593260        -0.770204        -1.274548
 H         1.906176        -1.236559        -0.245115
