19
Iteration:  2310charge 0 multiplicity 1
 C        -1.185133         2.108758        -0.052592
 C         0.164120         1.857729         0.624060
 O         0.348906         1.961074         2.047992
 C         1.576983         1.058788         1.862310
 C         2.590967         1.951378         1.181891
 C         1.560123         1.983760        -0.022368
 O         1.947266         2.502394        -1.226066
 C         0.990044         0.597951         0.397100
 C         0.921913        -0.786264        -0.168129
 H        -1.867602         1.325860         0.189112
 H        -1.555484         3.082740         0.346674
 H        -1.055230         2.202697        -1.080546
 H         1.752575         0.541803         2.773559
 H         2.989553         2.737002         1.781024
 H         3.400161         1.297960         0.798022
 H         1.974060         1.911883        -1.971910
 H         0.431420        -1.466152         0.517482
 H         0.470194        -0.757005        -1.085355
 H         1.990651        -1.174315        -0.302149
