19
Iteration:  1148charge 0 multiplicity 1
 C        -1.192399         2.236538         0.053611
 C         0.179021         1.813966         0.491394
 O         0.324979         1.892647         1.963134
 C         1.542402         1.074699         1.890349
 C         2.485526         2.036082         1.214789
 C         1.655212         1.852723        -0.057457
 O         1.937849         2.378275        -1.266181
 C         1.133190         0.609442         0.469508
 C         0.871621        -0.707858        -0.144227
 H        -1.943787         1.607487         0.589058
 H        -1.230309         3.263210         0.445317
 H        -1.285908         2.382478        -1.017928
 H         1.838478         0.487565         2.711306
 H         2.593300         3.021639         1.733515
 H         3.432335         1.568831         1.231217
 H         2.542977         1.922354        -1.855713
 H         0.407811        -1.283852         0.700011
 H         0.363218        -0.628295        -1.253823
 H         1.679473        -1.292417        -0.473623
