19
Iteration:   152
 C        -1.088223         2.256040        -0.115699
 C         0.166020         1.679608         0.593911
 O         0.383503         1.840742         2.053510
 C         1.653485         1.097560         1.862671
 C         2.512108         2.138917         1.137713
 C         1.730071         1.919965        -0.037273
 O         1.855454         2.490253        -1.280536
 C         1.032477         0.562778         0.522587
 C         0.714268        -0.815500        -0.086332
 H        -2.001670         1.720506         0.164628
 H        -1.111949         3.322903         0.105700
 H        -1.074796         2.125949        -1.164378
 H         1.841594         0.480084         2.825000
 H         2.425037         3.152780         1.683329
 H         3.573794         1.708037         1.028800
 H         2.460600         1.951232        -1.790650
 H        -0.185792        -1.208149         0.209410
 H         0.677592        -0.730188        -1.215075
 H         1.628315        -1.519449         0.237159
