19
Iteration:   213charge 0 multiplicity 1
 C        -1.091870         2.217779        -0.169193
 C         0.185410         1.783740         0.649352
 O         0.330858         1.986934         2.068061
 C         1.558279         1.091892         1.941149
 C         2.600065         2.002459         1.173684
 C         1.625804         1.847326        -0.038276
 O         1.782691         2.386954        -1.264904
 C         1.090184         0.611869         0.491507
 C         0.867750        -0.725373        -0.189849
 H        -1.997489         1.636489         0.240174
 H        -1.364517         3.297374         0.069388
 H        -0.821565         1.900499        -1.196387
 H         1.804806         0.407021         2.813101
 H         2.809137         2.926731         1.646162
 H         3.564934         1.576498         0.992892
 H         2.573536         2.111606        -1.709595
 H         0.291128        -1.476518         0.600613
 H         0.171264        -0.768928        -1.060983
 H         1.816816        -1.172625        -0.561708
