19
Iteration:   178
 C        -0.913590         2.237631        -0.036085
 C         0.292382         1.792823         0.583905
 O         0.286835         1.787257         2.041915
 C         1.586307         1.098108         1.907551
 C         2.457797         2.176432         1.235058
 C         1.689753         1.962334        -0.019151
 O         1.753115         2.376127        -1.350043
 C         1.211666         0.572318         0.401529
 C         0.692084        -0.772431        -0.147151
 H        -1.722224         1.716973         0.419199
 H        -1.069867         3.292712        -0.013481
 H        -1.032656         2.064116        -1.135661
 H         1.681436         0.549648         2.766994
 H         2.376620         3.138401         1.734763
 H         3.462815         1.813160         1.099883
 H         2.457342         1.821574        -1.664107
 H        -0.009343        -1.125664         0.701501
 H         0.242315        -0.744941        -1.129919
 H         1.475739        -1.576757         0.019227
