19
Iteration:  1413charge 0 multiplicity 1
 C        -1.010497         2.294609         0.065322
 C         0.260655         1.817717         0.504504
 O         0.326049         1.895260         2.011180
 C         1.459981         1.105388         1.887667
 C         2.510880         2.119414         1.214923
 C         1.704675         1.846888        -0.023818
 O         1.828425         2.345960        -1.312900
 C         1.074427         0.571603         0.408060
 C         0.849551        -0.790866        -0.140226
 H        -1.799569         1.607027         0.276287
 H        -1.287287         3.169890         0.574492
 H        -1.160099         2.496745        -1.090043
 H         1.747071         0.571817         2.890799
 H         2.554714         3.060974         1.706640
 H         3.468523         1.559223         1.203314
 H         2.444464         1.784994        -1.771524
 H        -0.053148        -1.263049         0.334888
 H         0.446591        -0.669839        -1.258790
 H         1.669766        -1.383138        -0.059473
