19
Iteration:  1875charge 0 multiplicity 1
 C        -1.075562         2.227898        -0.167239
 C         0.220521         1.844037         0.556423
 O         0.404200         2.062421         1.896268
 C         1.551550         1.005404         1.914028
 C         2.595722         1.872808         1.146539
 C         1.567495         1.862796         0.004500
 O         1.761944         2.619087        -1.171633
 C         1.001160         0.520995         0.537342
 C         0.916872        -0.862565        -0.016322
 H        -1.898375         1.539641         0.044951
 H        -1.393269         3.287899         0.247171
 H        -0.891118         2.309953        -1.244087
 H         1.654813         0.332524         2.699676
 H         3.089324         2.741044         1.622541
 H         3.379059         1.174031         0.736501
 H         2.318256         2.129253        -1.771985
 H         0.313018        -1.568976         0.572922
 H         0.331945        -0.731025        -1.025727
 H         1.799065        -1.389405        -0.194859
