19
Iteration:   817
 C        -1.081741         2.163897        -0.009584
 C         0.159511         1.856736         0.628201
 O         0.326464         1.928495         2.047647
 C         1.514648         1.087287         1.872792
 C         2.501691         2.019553         1.164635
 C         1.607883         1.964032         0.024116
 O         1.877571         2.330651        -1.265392
 C         1.102452         0.605842         0.443221
 C         0.880614        -0.722490        -0.202441
 H        -1.881174         1.444408         0.356685
 H        -1.446746         3.201022        -0.040787
 H        -1.000076         2.112428        -1.105562
 H         1.816689         0.470084         2.648790
 H         2.797380         2.946466         1.617781
 H         3.469229         1.544965         0.872952
 H         2.695913         1.936671        -1.519767
 H         0.550604        -1.411417         0.559869
 H         0.377037        -0.628636        -1.254471
 H         1.827016        -1.086290        -0.715590
