19
Iteration:  3433
 C        -0.897668         2.475104        -0.042478
 C         0.215653         1.790269         0.610313
 O         0.318581         1.799759         2.101823
 C         1.582665         1.076070         1.854307
 C         2.465860         2.087769         1.156156
 C         1.597640         1.804549        -0.037680
 O         1.708881         2.394382        -1.266003
 C         0.978615         0.499574         0.401777
 C         0.939052        -0.798132        -0.160355
 H        -1.872455         2.092813         0.126855
 H        -0.868158         3.527740         0.136643
 H        -0.732228         2.192017        -1.046070
 H         1.920263         0.452327         2.617596
 H         2.334777         3.112956         1.592294
 H         3.482682         1.763486         0.879438
 H         2.646343         2.410303        -1.491894
 H         0.410182        -1.496598         0.666705
 H         0.286038        -0.980267        -1.021382
 H         2.056646        -1.040700        -0.235383
