19
Iteration:   964charge 0 multiplicity 1
 C        -1.023561         2.244200         0.051168
 C         0.228574         1.830637         0.610695
 O         0.304382         1.941921         2.061798
 C         1.474952         1.126096         1.864117
 C         2.455281         2.027501         1.200057
 C         1.594772         1.959683        -0.007748
 O         1.869365         2.353036        -1.316978
 C         1.093343         0.548772         0.492035
 C         0.935959        -0.812541        -0.307988
 H        -1.824729         1.605225         0.348204
 H        -1.378805         3.184878         0.422180
 H        -1.013500         2.273199        -1.038510
 H         1.667909         0.605763         2.815980
 H         2.620563         3.074463         1.586812
 H         3.425427         1.576463         1.048181
 H         2.650870         1.839426        -1.695563
 H         0.344143        -1.431153         0.402697
 H         0.336435        -0.676833        -1.139433
 H         1.973416        -1.488301        -0.514751
