19
Iteration:   417
 C        -1.113317         2.131691         0.007378
 C         0.221322         1.758608         0.592952
 O         0.313076         1.984244         1.993444
 C         1.523877         1.091816         1.848728
 C         2.480327         2.030493         1.123469
 C         1.644847         1.896850        -0.032343
 O         1.992660         2.490396        -1.248674
 C         1.017823         0.547869         0.506523
 C         0.815901        -0.764514        -0.151639
 H        -1.996251         1.728942         0.587998
 H        -1.119164         3.219848         0.197841
 H        -1.257381         2.053007        -1.096504
 H         1.669380         0.480821         2.833327
 H         2.823371         3.043219         1.458007
 H         3.437419         1.447856         1.025646
 H         2.577454         1.903856        -1.714280
 H         0.509573        -1.614646         0.549655
 H         0.184808        -0.655347        -1.003890
 H         1.885746        -1.137614        -0.514612
