19
Iteration:  2194
 C        -1.163191         2.283053         0.026181
 C         0.153144         1.801940         0.550665
 O         0.320961         1.815832         2.067217
 C         1.556304         0.984527         1.801946
 C         2.571521         2.017959         1.196659
 C         1.610220         2.008723        -0.037358
 O         1.863578         2.397802        -1.319519
 C         1.013700         0.684534         0.363549
 C         0.987024        -0.708949        -0.083038
 H        -1.953055         1.757389         0.691183
 H        -1.285792         3.374031        -0.030272
 H        -1.157807         1.830371        -0.958596
 H         1.850288         0.406926         2.783858
 H         2.789129         2.923818         1.889554
 H         3.516231         1.443389         1.037812
 H         2.344384         1.618030        -1.600541
 H         0.090781        -1.205890         0.360023
 H         1.009168        -0.743090        -1.265727
 H         1.791711        -1.307883         0.280562
