19
Iteration:  1136
 C        -1.076287         2.288406         0.033359
 C         0.262189         1.828064         0.560421
 O         0.278909         1.834468         1.985968
 C         1.509694         1.069719         1.832674
 C         2.490611         2.125640         1.183897
 C         1.627186         1.919652        -0.025804
 O         1.949534         2.415066        -1.279862
 C         1.122821         0.512456         0.428840
 C         0.853346        -0.791823        -0.105759
 H        -1.837043         1.681747         0.644958
 H        -1.236735         3.296075         0.437626
 H        -1.459494         2.203481        -0.937408
 H         1.632396         0.457601         2.696344
 H         2.417211         3.159889         1.600640
 H         3.474333         1.827859         0.868096
 H         2.480228         1.696281        -1.647492
 H         0.125913        -1.488124         0.427739
 H         0.172663        -0.629415        -1.086555
 H         1.803719        -1.252116        -0.216663
