19
Iteration:  2867charge 0 multiplicity 1
 C        -0.975664         2.318625        -0.113595
 C         0.167680         1.741335         0.573980
 O         0.289378         1.852786         2.055929
 C         1.535788         0.994842         1.870651
 C         2.568135         1.968475         1.263268
 C         1.634484         1.931657         0.016842
 O         1.689375         2.526710        -1.336376
 C         1.151871         0.601445         0.469363
 C         0.925067        -0.735380        -0.080221
 H        -1.880026         1.648939        -0.142557
 H        -1.111295         3.361236         0.139891
 H        -0.645536         2.366376        -1.227376
 H         1.860772         0.273470         2.739676
 H         2.676275         2.973402         1.762344
 H         3.469420         1.346723         0.957020
 H         2.172578         1.862859        -1.836822
 H         0.353908        -1.542008         0.484783
 H         0.271752        -0.525202        -1.099194
 H         1.773403        -1.313093        -0.308109
