19
Iteration:  4654charge 0 multiplicity 1
 C        -1.094831         2.332718         0.008109
 C         0.205341         1.857991         0.585391
 O         0.395597         1.796681         2.064636
 C         1.576087         0.998299         1.853269
 C         2.585021         1.976938         1.124517
 C         1.647087         1.859997         0.005965
 O         1.884207         2.396334        -1.278542
 C         1.156936         0.577511         0.419550
 C         0.676549        -0.714879        -0.192873
 H        -1.915719         1.637423         0.412449
 H        -1.196746         3.501611         0.133290
 H        -1.198564         2.224385        -1.109247
 H         1.746074         0.334432         2.662313
 H         2.540323         3.079384         1.506477
 H         3.574134         1.532532         0.923502
 H         2.015727         3.371295        -1.097676
 H         0.205797        -1.146283         0.769218
 H        -0.053730        -0.611381        -1.023071
 H         1.485922        -1.315866        -0.423950
