19
Iteration:  3956
 C        -1.139879         2.194438         0.058502
 C         0.178450         1.867022         0.616371
 O         0.377481         1.947537         2.062281
 C         1.561728         1.019405         1.843451
 C         2.578201         1.977274         1.098417
 C         1.660429         1.901319        -0.018968
 O         2.007917         2.319500        -1.222403
 C         1.005930         0.563994         0.438491
 C         0.752312        -0.653942        -0.261014
 H        -1.920978         1.533816         0.607019
 H        -1.427812         3.183097         0.275365
 H        -1.163150         1.881344        -0.970726
 H         1.825486         0.382762         2.734321
 H         2.783154         2.939074         1.531747
 H         3.459624         1.461911         0.791102
 H         1.689439         3.236907        -1.376021
 H         0.022438        -1.306510         0.216247
 H         0.475219        -0.466746        -1.309481
 H         1.630871        -1.185883        -0.258299
