19
Iteration:  4786charge 0 multiplicity 1
 C        -0.982966         2.479409         0.089037
 C         0.148253         1.804415         0.715204
 O         0.372693         1.856191         2.128217
 C         1.558669         1.001763         1.826222
 C         2.544516         1.930689         1.157299
 C         1.489185         1.983911         0.001925
 O         1.835592         2.278011        -1.414082
 C         0.970462         0.595575         0.408636
 C         0.998807        -0.795352        -0.254920
 H        -1.985524         2.216786         0.559221
 H        -1.003356         3.585581         0.362902
 H        -1.047049         2.230059        -0.948362
 H         1.788923         0.301952         2.635253
 H         2.914850         2.768895         1.814489
 H         3.431771         1.254647         1.025006
 H         1.751625         3.247742        -1.650171
 H         0.205483        -1.508130         0.135058
 H         0.672921        -0.641284        -1.309955
 H         1.909888        -1.247760        -0.389905
