19
Iteration:  1066charge 0 multiplicity 1
 C        -0.963123         2.220449        -0.163518
 C         0.213835         1.753312         0.610094
 O         0.346701         2.016199         2.094732
 C         1.518709         1.138504         1.970231
 C         2.669586         1.895075         1.242371
 C         1.612921         1.912423         0.012368
 O         1.621543         2.521257        -1.273311
 C         1.044649         0.542254         0.415593
 C         0.890728        -0.837919        -0.218275
 H        -1.841314         1.660124         0.032195
 H        -1.180155         3.268587        -0.321140
 H        -0.821029         1.831928        -1.161933
 H         1.863613         0.620288         2.904953
 H         2.873950         2.829573         1.739062
 H         3.530300         1.183535         0.995140
 H         2.421725         2.426013        -1.771899
 H         0.004282        -1.312609         0.212679
 H         0.601583        -0.762176        -1.274201
 H         1.894121        -1.453613         0.063888
