19
Iteration:  2623
 C        -1.092066         2.284579         0.087166
 C         0.210167         1.724103         0.519097
 O         0.278130         1.848345         1.963061
 C         1.536163         1.105428         1.861188
 C         2.502653         2.132046         1.233227
 C         1.664540         1.962440        -0.030653
 O         1.876260         2.524901        -1.290812
 C         1.157946         0.499938         0.433390
 C         0.876428        -0.923591        -0.142566
 H        -1.918220         1.757137         0.533385
 H        -1.158510         3.424821         0.319101
 H        -1.200373         2.143831        -0.987694
 H         1.798416         0.472432         2.653540
 H         2.378733         3.072651         1.706315
 H         3.522875         1.835393         1.207368
 H         2.619416         2.141523        -1.822306
 H         0.096815        -1.316861         0.546031
 H         0.175072        -0.952194        -1.101774
 H         1.644739        -1.597156        -0.363450
