19
Iteration:  4136
 C        -1.112969         2.330597         0.170365
 C         0.159550         1.826801         0.741434
 O         0.325969         1.914539         2.059204
 C         1.540647         1.059858         1.862973
 C         2.638833         1.990092         1.205055
 C         1.682026         1.860663         0.037694
 O         2.009197         2.227412        -1.412040
 C         1.028678         0.577069         0.388867
 C         0.787987        -0.681459        -0.367726
 H        -1.984132         1.832982         0.445241
 H        -1.405439         3.455326         0.359165
 H        -1.179628         2.515663        -0.949757
 H         1.807086         0.508795         2.717784
 H         2.696740         2.941247         1.713221
 H         3.625276         1.470284         1.130452
 H         1.119795         2.522500        -1.584796
 H        -0.101498        -1.121665         0.055412
 H         0.434067        -0.323430        -1.335239
 H         1.639119        -1.277854        -0.390031
