19
Iteration:  4753charge 0 multiplicity 1
 C        -1.098134         2.358587         0.016819
 C         0.145345         1.951011         0.657862
 O         0.413136         1.990319         2.082271
 C         1.569580         1.023877         1.870470
 C         2.676525         1.834274         1.123838
 C         1.599692         1.833974         0.008407
 O         1.779492         2.285276        -1.222967
 C         0.970915         0.580534         0.475129
 C         0.967355        -0.719244        -0.367120
 H        -1.810603         1.604415         0.541016
 H        -1.417075         3.455112         0.298631
 H        -1.206293         2.358171        -1.053773
 H         1.683456         0.328212         2.685692
 H         3.026283         2.771252         1.659666
 H         3.463034         1.072150         0.876270
 H         1.198622         3.014651        -1.491223
 H         0.110769        -1.389866        -0.040242
 H         0.745314        -0.362897        -1.384380
 H         1.851066        -1.249851        -0.279761
