19
Iteration:    61charge 0 multiplicity 1
 C        -0.987547         2.345917         0.001860
 C         0.183971         1.793535         0.675516
 O         0.304141         1.851112         2.040465
 C         1.586270         1.199374         1.928787
 C         2.499724         2.097459         1.179189
 C         1.569342         1.928425        -0.010645
 O         1.844499         2.259025        -1.301791
 C         0.986597         0.509609         0.435808
 C         0.905087        -0.757726        -0.252970
 H        -2.016927         1.918107         0.298408
 H        -0.936769         3.504401         0.091759
 H        -0.940600         2.319018        -1.147503
 H         1.824725         0.508173         2.825647
 H         2.597907         3.128256         1.607068
 H         3.518113         1.671111         0.982590
 H         2.338861         1.552882        -1.698917
 H         0.602891        -1.701880         0.384699
 H         0.391595        -0.691646        -1.233199
 H         2.009648        -1.002375        -0.435067
