19
Iteration:  2828
 C        -1.095270         2.161523        -0.201217
 C         0.172354         1.851092         0.654332
 O         0.363711         1.925500         2.099322
 C         1.536905         1.048563         1.867914
 C         2.596474         1.923315         1.178421
 C         1.679840         1.929573        -0.056799
 O         1.789692         2.628811        -1.177228
 C         1.039003         0.539306         0.425388
 C         0.838498        -0.857795        -0.108173
 H        -1.964229         1.538264        -0.028026
 H        -1.368815         3.235636        -0.192887
 H        -0.832554         2.035037        -1.253994
 H         1.669173         0.351457         2.593274
 H         2.867052         2.910992         1.570187
 H         3.547221         1.461126         0.967657
 H         2.540510         2.431088        -1.803517
 H         0.279537        -1.505249         0.537657
 H         0.361933        -0.748007        -0.981416
 H         1.923716        -1.346384        -0.289375
