19
Iteration:  4771
 C        -1.113791         2.437845         0.078274
 C         0.168639         1.800084         0.662277
 O         0.451596         1.886095         2.063579
 C         1.521505         0.948930         1.857532
 C         2.589113         1.847907         1.170258
 C         1.640990         2.003618        -0.032522
 O         1.810998         2.291552        -1.370068
 C         0.892989         0.522512         0.539823
 C         0.948198        -0.634408        -0.272756
 H        -1.986128         1.911091         0.324439
 H        -0.938373         3.438422         0.184764
 H        -0.983405         2.305507        -1.012753
 H         1.797970         0.353160         2.714360
 H         2.839943         2.798615         1.638430
 H         3.449969         1.401222         0.745583
 H         1.383075         3.160451        -1.491068
 H         0.290320        -1.490927         0.149654
 H         0.843308        -0.487476        -1.351703
 H         2.025508        -0.990331        -0.049632
