19
Iteration:  4831
 C        -0.972475         2.433358         0.132277
 C         0.211451         1.767489         0.572647
 O         0.336233         1.856040         2.070071
 C         1.586975         0.995750         1.817144
 C         2.540026         1.983069         1.279006
 C         1.609104         1.929359        -0.064429
 O         1.763069         2.366382        -1.407541
 C         1.100270         0.542971         0.441527
 C         0.816377        -0.824800        -0.224315
 H        -1.912524         2.245408         0.668464
 H        -0.897019         3.502295         0.445707
 H        -1.133435         2.370135        -0.951672
 H         1.808749         0.366043         2.722236
 H         2.662331         2.905459         1.887824
 H         3.515780         1.653443         0.836276
 H         2.068536         3.309300        -1.472833
 H         0.307891        -1.517178         0.431897
 H         0.221965        -0.733139        -1.164583
 H         1.763366        -1.229578        -0.475213
