19
Iteration:  3527charge 0 multiplicity 1
 C        -1.163014         2.058186         0.021230
 C         0.144123         1.843311         0.580046
 O         0.381187         1.990418         1.965452
 C         1.583185         1.095031         1.869156
 C         2.648533         1.896602         1.144098
 C         1.569557         2.020365         0.026914
 O         1.932944         2.435962        -1.214494
 C         0.987266         0.566518         0.523272
 C         0.783321        -0.695994        -0.218921
 H        -1.915454         1.162649         0.314262
 H        -1.604844         3.122804         0.317785
 H        -0.884177         1.920911        -1.122675
 H         1.842796         0.558455         2.829363
 H         3.037865         2.863957         1.455229
 H         3.374574         1.209202         0.624280
 H         2.890204         2.351899        -1.496520
 H        -0.074281        -1.227617         0.040472
 H         0.704368        -0.513749        -1.304965
 H         1.661191        -1.299333        -0.036718
