19
Iteration:  3555
 C        -1.155167         2.096152         0.078169
 C         0.246467         1.824283         0.565050
 O         0.368993         2.006760         2.053393
 C         1.462436         1.121169         1.915085
 C         2.563519         1.994933         1.289624
 C         1.711134         1.849942         0.005339
 O         1.861316         2.381413        -1.347601
 C         1.134565         0.557283         0.449126
 C         0.783734        -0.650122        -0.346286
 H        -1.851914         1.501747         0.581511
 H        -1.505071         3.063007         0.291299
 H        -1.078149         1.756607        -0.891316
 H         1.765855         0.540772         2.818479
 H         2.712751         3.046452         1.628744
 H         3.531558         1.489895         1.305609
 H         2.622647         2.216095        -1.958226
 H        -0.215012        -1.125315         0.092687
 H         0.519413        -0.418288        -1.399119
 H         1.552351        -1.429992        -0.255123
