19
Iteration:  4990
 C        -1.044176         2.448324         0.094134
 C         0.203277         1.771542         0.593936
 O         0.388151         1.887145         2.124805
 C         1.582196         0.955113         1.881013
 C         2.563333         1.888142         1.213228
 C         1.563995         1.891320        -0.085761
 O         1.758202         2.319578        -1.351609
 C         1.081009         0.587956         0.414555
 C         0.909103        -0.682302        -0.294823
 H        -2.022495         2.093504         0.609720
 H        -1.003124         3.552785         0.314618
 H        -1.011602         2.334220        -1.002369
 H         1.606391         0.311781         2.764548
 H         2.491891         2.821627         1.836352
 H         3.567675         1.541543         0.992292
 H         1.728405         3.309914        -1.422333
 H         0.422786        -1.336433         0.290873
 H         0.398192        -0.642938        -1.234739
 H         1.873776        -1.256652        -0.338155
