19
Iteration:   617charge 0 multiplicity 1
 C        -0.980857         2.164405        -0.143527
 C         0.234115         1.735098         0.593670
 O         0.293093         1.905171         2.025190
 C         1.544408         1.125295         1.915256
 C         2.593240         2.102788         1.221771
 C         1.692607         1.942780         0.071278
 O         1.704235         2.317904        -1.230854
 C         1.169588         0.603702         0.515834
 C         0.763608        -0.685721        -0.259243
 H        -1.908995         1.701892         0.163626
 H        -1.166917         3.237143         0.075731
 H        -0.887223         2.016946        -1.214170
 H         1.702829         0.455058         2.666984
 H         2.760429         3.018029         1.722481
 H         3.497141         1.582983         0.896185
 H         2.481594         1.992669        -1.772183
 H         0.249367        -1.424648         0.473289
 H         0.041493        -0.521084        -1.094869
 H         1.765322        -1.117471        -0.618652
