19
Iteration:  4269charge 0 multiplicity 1
 C        -1.008276         2.452983         0.048684
 C         0.197377         1.710041         0.646089
 O         0.372438         1.890695         2.095925
 C         1.502056         0.988564         1.796547
 C         2.588422         2.060774         1.105334
 C         1.644408         1.837194        -0.021976
 O         1.871937         2.321622        -1.280616
 C         0.996323         0.560578         0.387176
 C         0.781276        -0.739801        -0.162445
 H        -1.948960         1.969354         0.341234
 H        -1.003445         3.547425         0.407188
 H        -0.929311         2.278100        -1.024369
 H         1.871817         0.205620         2.506365
 H         2.605985         2.978712         1.680861
 H         3.591327         1.788676         0.776612
 H         2.234601         3.207071        -1.279662
 H         0.104124        -1.339573         0.483101
 H         0.244596        -0.678794        -1.115361
 H         1.597870        -1.438053        -0.432585
