19
Iteration:  1096charge 0 multiplicity 1
 C        -1.012006         2.314284        -0.152534
 C         0.183469         1.755047         0.526157
 O         0.349082         1.834019         2.096157
 C         1.543671         0.998220         1.883100
 C         2.569414         2.039208         1.152215
 C         1.616633         1.906525         0.003063
 O         1.733115         2.475156        -1.259232
 C         1.085841         0.567259         0.481131
 C         0.865212        -0.740441        -0.064586
 H        -1.873498         1.835195         0.231225
 H        -1.064707         3.404018        -0.218022
 H        -0.878566         1.987662        -1.272596
 H         1.903013         0.427955         2.722725
 H         2.578079         3.050622         1.599179
 H         3.564844         1.670501         0.940366
 H         2.583427         2.191858        -1.679477
 H         0.000693        -1.155048         0.428182
 H         0.675895        -0.618671        -1.105488
 H         1.658589        -1.452758         0.006978
