19
Iteration:  4310charge 0 multiplicity 1
 C        -1.025675         2.358909         0.109226
 C         0.215339         1.872913         0.589018
 O         0.328218         1.981965         2.106110
 C         1.480566         0.992676         1.863567
 C         2.634222         1.852566         1.153263
 C         1.635122         1.964080         0.001199
 O         1.861925         2.214950        -1.389983
 C         1.029128         0.595484         0.507032
 C         0.864992        -0.669488        -0.268293
 H        -1.876741         1.799629         0.415939
 H        -1.291763         3.262432         0.621577
 H        -1.023022         2.418221        -1.000070
 H         1.534773         0.258849         2.630476
 H         2.894374         2.807403         1.584680
 H         3.527487         1.193335         0.975699
 H         1.239255         2.933999        -1.618753
 H         0.170162        -1.517393         0.144543
 H         0.590711        -0.416558        -1.382446
 H         1.890003        -1.130445        -0.308104
