19
Iteration:  3917
 C        -1.143690         2.282442        -0.042032
 C         0.244459         1.859176         0.624979
 O         0.368264         1.935817         2.063284
 C         1.544547         0.995848         1.869591
 C         2.647870         1.922475         1.200684
 C         1.659000         1.914995         0.054986
 O         1.708514         2.320918        -1.284006
 C         1.089744         0.623349         0.454931
 C         0.855394        -0.680365        -0.265627
 H        -1.870960         1.556872         0.278096
 H        -1.561210         3.350201         0.214942
 H        -1.274501         2.308076        -1.160431
 H         1.657602         0.425796         2.793775
 H         2.909778         2.865584         1.787838
 H         3.567015         1.322679         0.942943
 H         2.643849         2.405171        -1.601619
 H         0.019538        -1.234972         0.232162
 H         0.717786        -0.405792        -1.331598
 H         1.887594        -1.347180        -0.409781
