19
Iteration:  1891
 C        -1.048770         2.192600        -0.134090
 C         0.217747         1.853209         0.602075
 O         0.379029         2.026119         2.117941
 C         1.462819         1.096027         1.825883
 C         2.572463         1.786987         1.124848
 C         1.611366         1.952694        -0.033935
 O         1.837002         2.572098        -1.245942
 C         0.955200         0.583356         0.436469
 C         0.883051        -0.849579        -0.081255
 H        -1.818903         1.430359         0.185628
 H        -1.365533         3.177055         0.011812
 H        -0.855619         1.909394        -1.196091
 H         1.768155         0.687720         2.864073
 H         2.897228         2.760519         1.543736
 H         3.409675         1.152717         0.927656
 H         2.465081         2.052036        -1.773933
 H         0.518502        -1.465360         0.761782
 H         0.381568        -1.072381        -0.999997
 H         1.986874        -1.199958        -0.173146
