19
Iteration:  1202
 C        -1.049063         2.181202        -0.183867
 C         0.101969         1.809931         0.659039
 O         0.434001         1.968761         2.035337
 C         1.523206         1.070534         1.928946
 C         2.640865         1.945564         1.171504
 C         1.589690         1.868677         0.005661
 O         1.760993         2.359345        -1.266865
 C         1.008598         0.622558         0.559191
 C         0.896668        -0.627135        -0.196187
 H        -1.759206         1.321088        -0.142920
 H        -1.551181         3.023884         0.283510
 H        -0.719508         2.270625        -1.139603
 H         1.637489         0.479645         2.777862
 H         2.767935         2.948406         1.661434
 H         3.567268         1.422832         1.056900
 H         2.473833         1.985094        -1.808622
 H         0.269258        -1.475434         0.157264
 H         0.416080        -0.372959        -1.185052
 H         1.927166        -0.934466        -0.300299
