19
Iteration:  4577charge 0 multiplicity 1
 C        -1.055144         2.427995         0.047289
 C         0.164211         1.800032         0.661702
 O         0.351107         1.931394         2.089776
 C         1.520403         0.932146         1.878458
 C         2.664998         1.961318         1.156273
 C         1.637588         1.970383         0.016352
 O         1.840240         2.292739        -1.341576
 C         0.995675         0.580961         0.436950
 C         0.864343        -0.799160        -0.280849
 H        -2.051765         2.025887         0.403592
 H        -0.960527         3.515204         0.339925
 H        -0.984163         2.154614        -0.961028
 H         1.661368         0.413041         2.798324
 H         3.153745         2.827220         1.663247
 H         3.495071         1.478051         0.694957
 H         1.319448         3.060289        -1.604222
 H        -0.004937        -1.245198         0.254893
 H         0.810935        -0.526657        -1.298165
 H         1.692899        -1.411283        -0.274263
