19
Iteration:   607charge 0 multiplicity 1
 C        -0.989846         2.192907        -0.081601
 C         0.268040         1.799635         0.582344
 O         0.267735         1.883661         2.024359
 C         1.585415         1.125130         1.950363
 C         2.592398         2.202847         1.239637
 C         1.628102         1.893931         0.039796
 O         1.771029         2.349655        -1.249373
 C         1.054659         0.508641         0.435972
 C         0.787635        -0.741195        -0.252300
 H        -1.725633         1.546273         0.292150
 H        -1.072891         3.256628         0.137974
 H        -0.832981         2.119574        -1.159302
 H         1.844321         0.616640         2.750016
 H         2.780765         3.236612         1.541809
 H         3.563864         1.654021         1.245699
 H         2.474724         1.744368        -1.622434
 H         0.231925        -1.438145         0.356900
 H         0.083394        -0.534772        -1.114231
 H         1.605913        -1.345375        -0.813114
