19
Iteration:   759
 C        -0.985172         2.234531        -0.133258
 C         0.217510         1.756683         0.644215
 O         0.297356         1.931195         2.061949
 C         1.525356         1.169316         1.948218
 C         2.580150         1.997943         1.175915
 C         1.610490         1.968031         0.065786
 O         1.706388         2.421476        -1.293964
 C         1.084221         0.555363         0.482299
 C         0.927869        -0.828879        -0.257861
 H        -1.825848         1.591299        -0.036199
 H        -1.275463         3.226927         0.283370
 H        -0.631498         2.269072        -1.216122
 H         1.874702         0.678465         2.875012
 H         2.703331         2.961173         1.589171
 H         3.504161         1.475251         1.020539
 H         2.402362         1.806354        -1.696021
 H         0.156496        -1.465635         0.276740
 H         0.407495        -0.695774        -1.201943
 H         1.788151        -1.349787        -0.300254
