19
Iteration:   783charge 0 multiplicity 1
 C        -1.045133         2.174145        -0.155042
 C         0.223456         1.809013         0.603597
 O         0.340840         2.002143         1.987634
 C         1.514087         1.068077         1.919907
 C         2.611948         1.973070         1.220587
 C         1.694959         1.816834         0.047762
 O         1.672444         2.431424        -1.261541
 C         1.046098         0.556104         0.598334
 C         0.923881        -0.661188        -0.220664
 H        -1.802216         1.388988        -0.006154
 H        -1.470733         3.114123         0.215865
 H        -0.762696         2.097257        -1.238077
 H         1.784013         0.563720         2.744441
 H         2.725213         2.923715         1.663267
 H         3.487070         1.424995         0.986101
 H         2.282921         1.920049        -1.808540
 H         0.457946        -1.609343         0.102142
 H         0.184137        -0.325557        -1.045771
 H         1.961078        -0.891299        -0.416549
