19
Iteration:   113
 C        -1.086725         2.163245        -0.061067
 C         0.238515         1.874189         0.566145
 O         0.352884         2.026556         2.008623
 C         1.467036         1.057642         1.856566
 C         2.668052         1.840861         1.206906
 C         1.647782         1.983257         0.000866
 O         1.748434         2.473715        -1.313853
 C         0.940146         0.540280         0.471700
 C         0.943259        -0.762501        -0.091434
 H        -1.763495         1.452824         0.454139
 H        -1.475420         3.154394         0.304376
 H        -1.121335         2.196756        -1.230523
 H         1.638381         0.445112         2.660737
 H         3.110820         2.693930         1.645472
 H         3.459323         1.210707         0.898184
 H         2.619212         2.411498        -1.747628
 H         0.112000        -1.447106         0.422399
 H         0.875199        -0.807643        -1.156059
 H         1.796743        -1.296948         0.214994
