19
Iteration:   940
 C        -1.078623         2.261028        -0.147496
 C         0.171510         1.760993         0.560357
 O         0.380313         1.937827         2.036855
 C         1.581719         1.098605         1.897619
 C         2.634814         1.985736         1.253287
 C         1.620030         1.858289         0.018320
 O         1.722227         2.457886        -1.257447
 C         0.986958         0.565757         0.531067
 C         0.920158        -0.748431        -0.194269
 H        -2.033782         1.609417         0.048316
 H        -1.450629         3.278411         0.087226
 H        -0.873922         2.220025        -1.184251
 H         1.597427         0.377487         2.779286
 H         2.922807         2.948814         1.775982
 H         3.563307         1.515359         0.945425
 H         2.339815         1.976898        -1.847521
 H         0.272619        -1.510151         0.276072
 H         0.637030        -0.604684        -1.265614
 H         2.036898        -1.151275        -0.125343
