19
Iteration:  3248charge 0 multiplicity 1
 C        -1.036364         2.326352        -0.163735
 C         0.175035         1.878665         0.563954
 O         0.303029         1.885371         2.131135
 C         1.512084         1.055900         1.878362
 C         2.616753         1.837647         1.122725
 C         1.608236         1.985427        -0.063546
 O         1.834546         2.651658        -1.304958
 C         0.989780         0.502717         0.508759
 C         0.920202        -0.917205        -0.000391
 H        -1.953924         1.595499        -0.088914
 H        -1.416207         3.355160         0.053276
 H        -0.738267         2.245650        -1.251124
 H         1.737208         0.321681         2.640010
 H         3.001100         2.757360         1.620495
 H         3.434636         1.140874         0.977064
 H         2.362539         2.174525        -1.934604
 H         0.464901        -1.682381         0.611064
 H         0.311017        -0.953267        -0.813401
 H         1.858254        -1.197716        -0.199688
