19
Iteration:   535charge 0 multiplicity 1
 C        -1.153115         2.284379        -0.049285
 C         0.167745         1.870958         0.609899
 O         0.299561         1.930055         2.053748
 C         1.433221         1.090427         1.842265
 C         2.613398         1.881283         1.214908
 C         1.692074         1.914826        -0.014438
 O         1.807868         2.457487        -1.371856
 C         1.026576         0.603537         0.444312
 C         1.042396        -0.801075        -0.090802
 H        -1.770155         1.493879         0.366721
 H        -1.366714         3.231032         0.414970
 H        -1.214001         2.355087        -1.174616
 H         1.596081         0.341704         2.727676
 H         2.905463         2.831672         1.667775
 H         3.477858         1.283246         1.053535
 H         2.635452         2.152958        -1.792757
 H         0.065968        -1.330558         0.368007
 H         0.890987        -0.881247        -1.184903
 H         1.883081        -1.430834         0.138563
