19
Iteration:  1981
 C        -1.041492         2.283176        -0.066042
 C         0.186047         1.777597         0.626499
 O         0.367691         1.901156         2.106154
 C         1.532754         1.124313         1.897257
 C         2.544691         2.088719         1.186512
 C         1.610803         1.894288         0.067059
 O         1.772330         2.296658        -1.326590
 C         1.071772         0.539147         0.507010
 C         0.876656        -0.671457        -0.278210
 H        -1.963236         1.943454         0.322894
 H        -1.078252         3.348325        -0.226591
 H        -0.967530         1.829824        -1.149926
 H         1.853444         0.534441         2.804539
 H         2.757854         3.035963         1.621392
 H         3.430574         1.519359         0.845431
 H         2.419218         1.684756        -1.688919
 H        -0.024840        -1.178020         0.074978
 H         0.846662        -0.542064        -1.301124
 H         1.802098        -1.398798        -0.068195
