19
Iteration:  3742charge 0 multiplicity 1
 C        -0.978170         2.085344        -0.003538
 C         0.311979         1.803060         0.554367
 O         0.352713         1.868723         2.033534
 C         1.486694         1.128250         1.914176
 C         2.528539         2.051136         1.205327
 C         1.735502         1.917155         0.047109
 O         1.741327         2.366144        -1.269715
 C         1.135335         0.593338         0.477962
 C         0.729897        -0.606312        -0.301760
 H        -1.788805         1.566715         0.430242
 H        -1.433249         3.156693         0.096403
 H        -0.964264         1.858252        -1.025798
 H         1.974020         0.594987         2.759024
 H         2.541916         3.030551         1.772124
 H         3.507223         1.575408         1.219128
 H         2.394926         1.823282        -1.784306
 H        -0.200278        -0.969303         0.126670
 H         0.358792        -0.321190        -1.270726
 H         1.407166        -1.365927        -0.284975
