19
Iteration:  4672
 C        -1.047654         2.284686         0.062051
 C         0.205281         1.757466         0.650734
 O         0.339733         1.774075         2.107213
 C         1.598177         0.997163         1.825503
 C         2.551082         2.079731         1.200822
 C         1.656135         1.976682        -0.082037
 O         1.955270         2.360755        -1.409106
 C         1.033655         0.611640         0.434836
 C         0.631866        -0.714615        -0.164828
 H        -1.933238         1.796189         0.421401
 H        -0.998233         3.327358         0.309015
 H        -0.873400         1.995939        -0.994379
 H         2.103169         0.368786         2.607520
 H         2.750867         2.909134         1.873174
 H         3.557156         1.669389         1.108583
 H         2.295911         3.291645        -1.343250
 H        -0.064439        -1.321864         0.466889
 H         0.162842        -0.423189        -1.113348
 H         1.434724        -1.323623        -0.653189
