19
Iteration:  2897charge 0 multiplicity 1
 C        -1.025086         2.381722         0.086191
 C         0.198886         1.808876         0.560674
 O         0.295702         1.854263         1.986505
 C         1.551418         1.081911         1.908566
 C         2.486108         2.177291         1.188063
 C         1.620721         1.894803         0.036693
 O         1.819766         2.306630        -1.251134
 C         1.033942         0.497037         0.403130
 C         0.897702        -0.850772        -0.270437
 H        -1.876982         1.729262         0.197229
 H        -1.255116         3.422845         0.393984
 H        -0.934552         2.459141        -1.001875
 H         2.053215         0.497093         2.870768
 H         2.539042         3.276534         1.664666
 H         3.616312         1.941694         1.065693
 H         2.796393         2.148680        -1.280007
 H         0.237946        -1.664020         0.088451
 H         0.567438        -0.648781        -1.357930
 H         1.931039        -1.263947        -0.380837
