19
Iteration:   487charge 0 multiplicity 1
 C        -1.027319         2.347383        -0.181821
 C         0.167492         1.792281         0.637434
 O         0.300850         1.903054         2.113675
 C         1.562535         1.108020         1.924948
 C         2.574972         2.052857         1.200953
 C         1.604039         1.882341         0.056914
 O         1.692681         2.407402        -1.300471
 C         1.109733         0.524968         0.504065
 C         0.894922        -0.852707        -0.214813
 H        -2.029014         1.923053         0.043792
 H        -0.948887         3.491489        -0.142985
 H        -0.562952         2.042584        -1.127547
 H         1.983568         0.625639         2.716886
 H         2.821084         3.166253         1.539193
 H         3.602273         1.543800         1.007535
 H         2.430445         2.021051        -1.774155
 H         0.145161        -1.512952         0.052683
 H         0.822906        -0.584963        -1.317112
 H         1.883803        -1.574193        -0.149963
