19
Iteration:  4674charge 0 multiplicity 1
 C        -1.032027         2.273316         0.075753
 C         0.189213         1.760471         0.639552
 O         0.336737         1.776280         2.115717
 C         1.613972         1.003174         1.827977
 C         2.554948         2.085750         1.202839
 C         1.651095         1.990384        -0.063002
 O         1.959837         2.352771        -1.418751
 C         1.029330         0.617424         0.437854
 C         0.623068        -0.727076        -0.198351
 H        -1.934894         1.701971         0.419551
 H        -0.932202         3.401520         0.268719
 H        -0.893798         2.022281        -1.020761
 H         2.115788         0.401621         2.567182
 H         2.727609         2.950038         1.929785
 H         3.539096         1.607821         1.116843
 H         2.289556         3.259540        -1.340352
 H        -0.082753        -1.323072         0.509225
 H         0.125143        -0.478601        -1.145661
 H         1.444276        -1.289030        -0.550866
