19
Iteration:  1222
 C        -0.978210         2.259037        -0.174566
 C         0.228898         1.813109         0.638518
 O         0.294186         2.004640         2.078474
 C         1.586986         1.108611         1.917847
 C         2.601766         1.999792         1.249599
 C         1.629550         1.982870         0.071985
 O         1.670806         2.361923        -1.307529
 C         1.088512         0.478244         0.500995
 C         0.873098        -0.796630        -0.261902
 H        -1.904904         1.496852        -0.022439
 H        -1.307719         3.209103         0.361649
 H        -0.754469         2.297918        -1.268410
 H         1.926290         0.632877         2.825769
 H         2.861538         2.961776         1.795309
 H         3.510216         1.421525         0.938819
 H         2.280987         1.811779        -1.892921
 H         0.023148        -1.406574         0.166397
 H         0.390560        -0.565178        -1.219972
 H         1.857133        -1.488466        -0.341420
