19
Iteration:  4919charge 0 multiplicity 1
 C        -1.160765         2.158337         0.054647
 C         0.287975         1.865883         0.608527
 O         0.425418         1.935545         2.045333
 C         1.568855         0.996891         1.875310
 C         2.710755         1.974871         1.203409
 C         1.737603         1.878157         0.014923
 O         1.844562         2.405115        -1.298083
 C         1.008368         0.563133         0.426467
 C         0.637886        -0.684821        -0.304803
 H        -1.705236         1.421522         0.594570
 H        -1.508455         3.116666         0.437326
 H        -1.166549         2.127468        -1.031465
 H         1.743795         0.383768         2.802374
 H         2.692517         2.932963         1.713477
 H         3.711091         1.641409         0.835489
 H         1.543165         3.352074        -1.223749
 H        -0.283927        -1.385805        -0.023749
 H         0.437217        -0.296928        -1.349722
 H         1.436940        -1.407146        -0.273064
