19
Iteration:  1734
 C        -1.137328         2.171165        -0.090909
 C         0.197302         1.913081         0.596598
 O         0.354159         2.057231         2.094547
 C         1.502751         1.083145         1.879422
 C         2.662138         1.831619         1.124832
 C         1.593529         1.971634         0.016463
 O         1.833278         2.353196        -1.309977
 C         0.959679         0.602396         0.489233
 C         0.943548        -0.741752        -0.188936
 H        -1.827045         1.759048         0.671322
 H        -1.554336         3.210963        -0.213905
 H        -1.239226         1.684329        -0.997538
 H         1.586400         0.406057         2.725274
 H         3.026012         2.622845         1.779353
 H         3.419746         1.140775         1.001751
 H         2.774595         2.190048        -1.331443
 H         0.564415        -1.545083         0.449929
 H         0.353098        -0.641034        -1.188947
 H         1.930001        -0.988807        -0.389699
