19
Iteration:  4901charge 0 multiplicity 1
 C        -1.010419         2.086795         0.066688
 C         0.250686         1.867260         0.665548
 O         0.442723         2.012020         2.071030
 C         1.582703         1.105189         1.867319
 C         2.613914         1.873843         1.138453
 C         1.608547         1.916107        -0.002991
 O         1.848196         2.409126        -1.213457
 C         1.049524         0.593980         0.370045
 C         0.650437        -0.714040        -0.362141
 H        -1.859843         1.375532         0.286703
 H        -1.587231         2.980208         0.436986
 H        -0.812965         2.137161        -1.070340
 H         1.766043         0.398702         2.638868
 H         3.100154         2.675795         1.782771
 H         3.414445         1.120845         0.989588
 H         1.256429         3.209193        -1.274955
 H        -0.073375        -1.061227         0.254018
 H         0.305075        -0.599909        -1.348975
 H         1.599047        -1.350027        -0.349043
