19
Iteration:   735
 C        -1.102612         2.321463        -0.109217
 C         0.174114         1.783094         0.571854
 O         0.356642         1.800167         2.045864
 C         1.592266         1.052938         1.830772
 C         2.529212         2.095830         1.241948
 C         1.579325         1.946085        -0.026849
 O         1.814459         2.395365        -1.316957
 C         1.061787         0.597449         0.482802
 C         0.937343        -0.792197        -0.087841
 H        -2.035176         1.797111         0.188048
 H        -1.229818         3.324279         0.384393
 H        -0.935982         2.344865        -1.199713
 H         1.834446         0.216706         2.674831
 H         2.466389         3.119288         1.707021
 H         3.578300         1.760762         1.075269
 H         2.630935         2.049347        -1.705149
 H        -0.007935        -1.211062         0.339887
 H         0.656138        -0.795595        -1.097076
 H         1.742067        -1.421400         0.107395
