19
Iteration:   401
 C        -1.104354         2.143454         0.016697
 C         0.185853         1.870577         0.560584
 O         0.321196         2.003439         2.005017
 C         1.472107         1.093490         1.912345
 C         2.600117         1.870662         1.134989
 C         1.549383         1.902411        -0.063372
 O         1.953346         2.509888        -1.265529
 C         1.017504         0.555060         0.509560
 C         0.922131        -0.760365        -0.119529
 H        -1.755240         1.353554         0.305112
 H        -1.636151         3.103071        -0.017668
 H        -1.066781         1.891084        -1.036923
 H         1.740860         0.544703         2.737727
 H         2.829598         2.829544         1.574004
 H         3.502937         1.432727         0.752690
 H         2.699265         2.003363        -1.600082
 H         0.307261        -1.373580         0.532688
 H         0.186879        -0.647107        -0.979612
 H         1.782297        -1.072688        -0.530654
