19
Iteration:  1862charge 0 multiplicity 1
 C        -1.059010         2.288489        -0.138506
 C         0.167808         1.705425         0.522445
 O         0.386640         2.015407         1.964857
 C         1.509034         1.099260         1.823592
 C         2.696795         1.913572         1.193741
 C         1.692916         1.894915        -0.009074
 O         1.704928         2.577832        -1.191866
 C         1.002263         0.466059         0.526880
 C         0.841336        -0.884326        -0.029074
 H        -1.872677         1.647722        -0.069647
 H        -1.294134         3.249116         0.377140
 H        -0.879989         2.566901        -1.287366
 H         1.562734         0.638695         2.809869
 H         2.790032         2.975296         1.494301
 H         3.730099         1.350174         1.067584
 H         2.451147         2.254126        -1.772315
 H         0.131523        -1.524703         0.509608
 H         0.501116        -0.785870        -1.055909
 H         1.892196        -1.288625        -0.137680
