19
Iteration:  2958charge 0 multiplicity 1
 C        -1.138231         2.158882         0.020198
 C         0.252642         1.927063         0.553046
 O         0.317284         1.971177         2.052033
 C         1.456544         1.008444         1.875515
 C         2.597500         1.925014         1.180281
 C         1.618385         2.007844         0.038905
 O         1.828852         2.323505        -1.228470
 C         1.009659         0.642340         0.421582
 C         0.985058        -0.663659        -0.247879
 H        -1.847137         1.454968         0.560991
 H        -1.362052         3.257466         0.075158
 H        -1.173726         1.851724        -1.017376
 H         1.738583         0.381004         2.604489
 H         2.876592         2.798249         1.673796
 H         3.359717         1.243372         0.861760
 H         2.306562         1.576919        -1.636308
 H         0.148714        -1.350028        -0.052896
 H         0.969999        -0.358214        -1.362825
 H         1.957789        -1.260063         0.002264
