19
Iteration:   208
 C        -1.077047         2.223031        -0.144331
 C         0.177785         1.781650         0.617213
 O         0.315525         1.929228         2.046791
 C         1.595392         1.094722         1.893058
 C         2.614353         2.038686         1.220263
 C         1.652110         1.866748        -0.012970
 O         1.748869         2.377745        -1.302284
 C         1.119556         0.605546         0.522549
 C         0.819685        -0.727197        -0.158936
 H        -1.925595         1.737673         0.220438
 H        -1.343395         3.242028        -0.051832
 H        -0.910370         1.991433        -1.198426
 H         1.567526         0.421674         2.711771
 H         2.824385         3.037885         1.788305
 H         3.654569         1.599923         1.020297
 H         2.634207         2.014328        -1.637586
 H         0.375938        -1.308688         0.496355
 H         0.145050        -0.573062        -1.000707
 H         1.817003        -1.300307        -0.519090
