19
Iteration:  4635charge 0 multiplicity 1
 C        -1.009067         2.297863         0.004893
 C         0.226972         1.809462         0.644139
 O         0.394982         1.905002         2.018617
 C         1.596693         1.045471         1.790775
 C         2.654295         1.931848         1.228579
 C         1.665502         1.976923         0.031726
 O         1.836194         2.449249        -1.272034
 C         0.949200         0.554718         0.373381
 C         0.714695        -0.872112        -0.169343
 H        -1.865837         1.719692         0.373113
 H        -1.213648         3.332669         0.153439
 H        -1.108476         2.343128        -1.037549
 H         1.734170         0.443728         2.688638
 H         2.915376         2.800326         1.776420
 H         3.432353         1.288616         0.807351
 H         1.631227         3.402742        -1.449413
 H         0.150034        -1.569128         0.386710
 H         0.036697        -0.666132        -1.017995
 H         1.713872        -1.326738        -0.494504
