19
Iteration:   151charge 0 multiplicity 1
 C        -1.091814         2.255688        -0.121267
 C         0.173222         1.680138         0.597608
 O         0.386672         1.845046         2.055197
 C         1.655521         1.106294         1.861595
 C         2.511935         2.130202         1.135708
 C         1.722317         1.919653        -0.028633
 O         1.858593         2.492871        -1.281193
 C         1.024045         0.558702         0.516618
 C         0.726724        -0.815177        -0.087628
 H        -2.033745         1.686159         0.173331
 H        -1.116694         3.361966         0.143943
 H        -1.075110         2.104470        -1.187021
 H         1.819181         0.469968         2.866104
 H         2.437506         3.136421         1.677583
 H         3.557255         1.678066         1.000206
 H         2.460994         1.971644        -1.787421
 H        -0.228110        -1.209814         0.212974
 H         0.672819        -0.779607        -1.225694
 H         1.617720        -1.479355         0.236178
