19
Iteration:  3882charge 0 multiplicity 1
 C        -0.975863         2.449520        -0.073737
 C         0.126336         1.775498         0.736228
 O         0.326223         1.874368         2.173676
 C         1.565774         1.049642         1.923755
 C         2.512876         1.974138         1.150105
 C         1.590671         1.901556        -0.040932
 O         1.821413         2.440568        -1.352793
 C         1.100814         0.547445         0.450002
 C         0.927057        -0.836684        -0.272898
 H        -1.915172         1.914077         0.175610
 H        -1.166089         3.475838         0.387384
 H        -0.736924         2.445806        -1.095481
 H         1.897051         0.429416         2.802381
 H         2.506585         2.997918         1.607540
 H         3.531965         1.663249         0.987431
 H         1.480376         1.702075        -1.951134
 H         0.157826        -1.526846         0.081615
 H         0.482765        -0.609245        -1.269506
 H         1.925090        -1.492811        -0.342169
