19
Iteration:  3455
 C        -0.936206         2.517858        -0.077035
 C         0.215115         1.654773         0.557264
 O         0.260633         1.786050         2.044346
 C         1.544252         1.055869         1.906442
 C         2.552109         2.171845         1.185943
 C         1.673845         1.957281         0.002705
 O         1.647443         2.465001        -1.345824
 C         1.189911         0.415317         0.485765
 C         0.859458        -0.880090        -0.119350
 H        -1.866360         2.141673         0.137435
 H        -0.735181         3.472241         0.345015
 H        -0.824907         2.542665        -1.114716
 H         1.923810         0.450842         2.661545
 H         2.501540         3.006431         1.896850
 H         3.415193         1.546798         1.036059
 H         2.417897         2.135702        -1.862483
 H         0.201203        -1.398155         0.745944
 H         0.145624        -0.771236        -0.951819
 H         1.798498        -1.491602        -0.392622
