19
Iteration:  3366charge 0 multiplicity 1
 C        -1.125037         2.148486         0.091725
 C         0.167734         1.923825         0.595189
 O         0.320274         2.055165         2.052225
 C         1.457472         1.092818         1.877736
 C         2.642736         1.951214         1.206234
 C         1.667387         1.879432        -0.019630
 O         1.900836         2.376898        -1.251487
 C         1.007900         0.598313         0.478291
 C         0.919223        -0.742629        -0.359251
 H        -1.849581         1.578728         0.563739
 H        -1.549776         3.141606         0.132834
 H        -1.079063         1.724765        -0.919898
 H         1.645507         0.426014         2.711640
 H         2.977698         2.862004         1.776206
 H         3.550591         1.316648         0.968636
 H         2.057327         1.621914        -1.847269
 H         0.013100        -1.437952        -0.060821
 H         0.620890        -0.685417        -1.445249
 H         1.924254        -1.292954        -0.149804
