19
Iteration:  4320charge 0 multiplicity 1
 C        -1.085557         2.331026         0.066158
 C         0.243389         1.864686         0.711006
 O         0.393017         1.993291         2.051593
 C         1.498564         1.050567         1.854605
 C         2.593771         1.846879         1.170288
 C         1.635340         1.847841         0.009886
 O         1.848774         2.211617        -1.315829
 C         0.940176         0.625105         0.416380
 C         0.924514        -0.611915        -0.284236
 H        -1.927566         1.657456         0.358085
 H        -1.101625         3.321459         0.508408
 H        -1.136666         2.533942        -1.049692
 H         1.785435         0.451020         2.664357
 H         2.997958         2.725938         1.689993
 H         3.412139         1.072760         1.005879
 H         1.233521         2.826619        -1.701803
 H         0.092813        -1.305993         0.148295
 H         0.625430        -0.470733        -1.409214
 H         1.848916        -1.175552        -0.332272
