19
Iteration:  3231charge 0 multiplicity 1
 C        -1.045727         2.301778        -0.094798
 C         0.130561         1.768950         0.624185
 O         0.273730         1.897062         1.998284
 C         1.512851         0.990238         1.829298
 C         2.586571         1.850109         1.135028
 C         1.621635         1.928712        -0.014003
 O         1.855985         2.584495        -1.286759
 C         0.967995         0.623493         0.428807
 C         0.954444        -0.777907         0.020691
 H        -1.931395         1.893291         0.291005
 H        -1.072941         3.343025         0.194929
 H        -0.915927         2.272922        -1.152773
 H         1.781546         0.393258         2.754538
 H         3.087254         2.731329         1.622258
 H         3.523944         1.269204         0.846615
 H         2.417398         1.981121        -1.770672
 H         0.534546        -1.315092         0.899488
 H         0.353210        -0.973677        -0.989753
 H         2.092321        -1.146585        -0.251532
