19
Iteration:  3591
 C        -1.070202         2.303659        -0.097779
 C         0.158827         1.754570         0.607644
 O         0.347313         1.770133         2.121637
 C         1.622024         1.077588         1.834060
 C         2.522641         2.138595         1.190759
 C         1.626282         1.947419         0.029010
 O         1.837652         2.302841        -1.232186
 C         1.114989         0.590427         0.472075
 C         0.821267        -0.638390        -0.217938
 H        -2.011954         1.932124         0.249702
 H        -0.996378         3.284546        -0.197983
 H        -1.068846         2.148439        -1.143361
 H         1.877786         0.276716         2.578491
 H         2.597276         3.124476         1.624882
 H         3.450219         1.710508         0.844279
 H         2.190219         1.476886        -1.655474
 H         0.026009        -1.235701         0.351819
 H         0.476917        -0.312505        -1.253036
 H         1.647394        -1.292050        -0.452332
