19
Iteration:  4627charge 0 multiplicity 1
 C        -1.005725         2.310502         0.016119
 C         0.179060         1.803822         0.672876
 O         0.412129         1.945076         2.034570
 C         1.534696         1.009479         1.818108
 C         2.653249         1.840188         1.189865
 C         1.622793         2.008344         0.004389
 O         1.855464         2.490072        -1.355661
 C         0.990070         0.559607         0.477326
 C         0.727533        -0.863090        -0.189906
 H        -1.856712         1.705907         0.245700
 H        -1.067871         3.352706         0.330211
 H        -0.851709         2.115349        -1.114790
 H         1.504547         0.246370         2.686809
 H         2.892269         2.796017         1.672565
 H         3.636160         1.330712         1.022407
 H         1.366527         3.368758        -1.386810
 H         0.268276        -1.519987         0.545619
 H         0.329989        -0.708451        -1.212719
 H         1.777503        -1.305065        -0.536991
