19
Iteration:    34charge 0 multiplicity 1
 C        -1.051521         2.421969        -0.071324
 C         0.203789         1.728668         0.624228
 O         0.261864         1.810951         2.151907
 C         1.526411         1.070022         1.900743
 C         2.505619         2.208854         1.231405
 C         1.673228         1.898625        -0.037378
 O         1.812798         2.212971        -1.380957
 C         1.233691         0.566579         0.482112
 C         0.875399        -0.732356        -0.213092
 H        -2.028534         2.206897         0.301506
 H        -0.898068         3.454397         0.206520
 H        -1.210515         2.449784        -1.160696
 H         1.763075         0.264901         2.560989
 H         2.279250         3.186945         1.634817
 H         3.560300         2.009075         1.161649
 H         2.084458         1.432817        -1.854863
 H         0.329069        -1.388435         0.452419
 H         0.229389        -0.437515        -1.039277
 H         1.795965        -1.149680        -0.613119
