19
Iteration:  4719charge 0 multiplicity 1
 C        -1.113741         2.264957         0.015657
 C         0.255679         1.791122         0.663821
 O         0.404408         1.938707         2.053800
 C         1.591357         1.039854         1.901789
 C         2.616198         1.887641         1.221555
 C         1.639556         1.895385        -0.044582
 O         1.860806         2.316049        -1.354649
 C         0.963419         0.549757         0.518986
 C         0.781108        -0.583419        -0.314038
 H        -1.877153         1.526374         0.472969
 H        -1.207041         3.260433         0.590210
 H        -1.204443         2.174438        -1.076197
 H         1.716486         0.381667         2.718177
 H         2.926440         2.896836         1.673035
 H         3.605875         1.459798         0.991622
 H         1.538161         3.214277        -1.471782
 H        -0.121510        -1.227797         0.042910
 H         0.677194        -0.349382        -1.384655
 H         1.602599        -1.193409        -0.320688
