19
Iteration:  3635charge 0 multiplicity 1
 C        -0.980345         2.370956        -0.034353
 C         0.222801         1.882577         0.598007
 O         0.332577         1.966558         1.994714
 C         1.432380         1.004110         1.832468
 C         2.580479         1.945114         1.177667
 C         1.634113         1.870226        -0.018644
 O         1.662724         2.478082        -1.208929
 C         1.042669         0.494005         0.431586
 C         1.004721        -0.856714        -0.135297
 H        -1.761698         1.751831         0.361187
 H        -1.054895         3.371167         0.251911
 H        -0.980502         2.411879        -1.090299
 H         1.684599         0.386298         2.729167
 H         2.704935         2.927544         1.620177
 H         3.510885         1.389101         1.124958
 H         2.371879         2.274939        -1.871915
 H         0.613271        -1.622293         0.639299
 H         0.449385        -0.889461        -1.124228
 H         1.981335        -1.262933        -0.448159
