19
Iteration:  3294charge 0 multiplicity 1
 C        -0.971512         2.255610        -0.134107
 C         0.256194         1.758886         0.590364
 O         0.360047         1.884642         2.019925
 C         1.572939         1.025347         1.917712
 C         2.531143         2.109861         1.286319
 C         1.725738         1.901121        -0.006229
 O         1.723037         2.458340        -1.359048
 C         1.115025         0.476046         0.500732
 C         0.722134        -0.756662        -0.145533
 H        -1.949312         1.626690         0.061823
 H        -1.210073         3.171155         0.437395
 H        -0.974705         2.424254        -1.196458
 H         1.768283         0.519335         2.830331
 H         2.669839         3.105498         1.728178
 H         3.450643         1.570079         1.149314
 H         2.629172         2.414938        -1.688289
 H        -0.125327        -1.181085         0.310421
 H         0.207586        -0.527358        -1.062768
 H         1.482811        -1.485971        -0.275788
