19
Iteration:  3997
 C        -1.007397         2.257086         0.073527
 C         0.269932         1.795451         0.618808
 O         0.318390         1.838033         2.071045
 C         1.525170         1.019249         1.853420
 C         2.528220         2.008327         1.157565
 C         1.681173         1.902779        -0.007765
 O         1.955299         2.509707        -1.322291
 C         1.057734         0.584751         0.392531
 C         0.704781        -0.724593        -0.184779
 H        -1.827621         1.880558         0.731755
 H        -0.935444         3.329627         0.036044
 H        -0.997022         1.979528        -1.022165
 H         1.839410         0.294207         2.588297
 H         2.623047         3.028053         1.590513
 H         3.538674         1.516318         1.071810
 H         1.297537         2.058386        -1.919894
 H        -0.057386        -1.308715         0.438696
 H         0.054683        -0.670862        -1.090801
 H         1.675971        -1.413064        -0.262472
