19
Iteration:  4222charge 0 multiplicity 1
 C        -1.033027         2.321179        -0.071536
 C         0.245786         1.809340         0.665315
 O         0.362873         1.860185         2.000398
 C         1.520246         0.951599         1.810672
 C         2.738247         1.935507         1.154034
 C         1.634500         1.920962        -0.014382
 O         1.758512         2.428667        -1.251307
 C         1.044065         0.624657         0.429496
 C         0.716606        -0.721708        -0.103791
 H        -1.911184         1.975241         0.337074
 H        -0.925172         3.357826         0.206060
 H        -1.008946         2.061618        -1.140761
 H         1.587794         0.243824         2.590070
 H         2.989389         2.924624         1.412785
 H         3.675990         1.405483         0.965506
 H         2.221912         3.256565        -1.064179
 H         0.019443        -1.290177         0.677519
 H         0.203667        -0.810709        -1.172499
 H         1.503767        -1.477483        -0.255980
