19
Iteration:  2453charge 0 multiplicity 1
 C        -1.053010         2.347882        -0.021329
 C         0.184807         1.822952         0.596492
 O         0.279286         1.871949         2.036461
 C         1.483986         1.021764         1.852543
 C         2.520707         1.961834         1.140455
 C         1.574461         1.938858        -0.026095
 O         1.830272         2.524716        -1.281339
 C         1.041080         0.568935         0.468891
 C         1.054060        -0.863802        -0.126793
 H        -1.804702         1.581492         0.284624
 H        -1.219209         3.324538         0.441020
 H        -1.008769         2.427005        -1.050938
 H         1.682168         0.354037         2.762934
 H         2.622112         2.971247         1.618883
 H         3.578033         1.570880         1.012744
 H         2.154276         1.975623        -2.013497
 H         0.626683        -1.569331         0.603455
 H         0.480222        -0.943318        -1.003159
 H         2.152513        -1.242967        -0.367257
