19
Iteration:  4371
 C        -1.057039         2.378550         0.086821
 C         0.229024         1.801859         0.690728
 O         0.392522         1.887491         2.032236
 C         1.535407         1.086830         1.916104
 C         2.600748         1.906880         1.172374
 C         1.580227         1.882628        -0.001822
 O         1.854205         2.254674        -1.354810
 C         1.036037         0.587808         0.405443
 C         0.758349        -0.655450        -0.263033
 H        -1.880476         1.689675         0.448721
 H        -1.005877         3.458583         0.051373
 H        -0.949102         2.201973        -0.964325
 H         1.798499         0.403736         2.699777
 H         2.772120         2.931393         1.591864
 H         3.516343         1.384136         0.928717
 H         1.913096         3.244474        -1.412691
 H         0.032369        -1.270582         0.153200
 H         0.626485        -0.639146        -1.304593
 H         1.732228        -1.187442        -0.129069
