19
Iteration:  3219charge 0 multiplicity 1
 C        -1.088451         2.371574        -0.022160
 C         0.186404         1.798863         0.537738
 O         0.332407         1.886567         1.989575
 C         1.506550         1.075398         1.850316
 C         2.586425         1.943119         1.184705
 C         1.602209         1.949783        -0.008055
 O         1.829635         2.462107        -1.195656
 C         1.023538         0.592446         0.351512
 C         0.938413        -0.818737        -0.057260
 H        -1.961311         1.819517         0.315847
 H        -1.148290         3.424831         0.065481
 H        -1.076905         2.123529        -1.037812
 H         1.642098         0.250964         2.534800
 H         2.826091         2.946957         1.582038
 H         3.338547         1.158773         0.963226
 H         2.488090         1.961804        -1.728549
 H         0.504320        -1.488725         0.712938
 H         0.317452        -1.071878        -1.035084
 H         2.107869        -1.273482        -0.135466
