19
Iteration:  2098
 C        -0.940109         2.251535        -0.090136
 C         0.265438         1.815727         0.640158
 O         0.305151         1.694272         2.097509
 C         1.507601         1.048827         1.831841
 C         2.527586         2.227381         1.289645
 C         1.747589         1.969515        -0.018877
 O         1.776786         2.315500        -1.426265
 C         1.046759         0.636185         0.413611
 C         0.741000        -0.724214        -0.082861
 H        -1.640322         1.449306         0.248477
 H        -1.381984         3.183612         0.114506
 H        -0.897794         2.114377        -1.267969
 H         2.028920         0.346974         2.649445
 H         2.515193         3.258403         1.836324
 H         3.540738         1.869388         1.059415
 H         2.682204         2.549720        -1.625811
 H         0.235329        -1.253542         0.770627
 H        -0.027094        -0.732360        -0.994807
 H         1.576831        -1.277990        -0.352256
