19
Iteration:   459
 C        -0.970247         2.291828        -0.078001
 C         0.254416         1.797748         0.525012
 O         0.289284         1.805806         2.060284
 C         1.491907         1.053596         1.854617
 C         2.519270         2.083084         1.240657
 C         1.629435         1.974493         0.029297
 O         1.731047         2.301722        -1.322822
 C         1.173206         0.599556         0.443420
 C         0.832505        -0.671249        -0.117914
 H        -1.779403         1.912720         0.511249
 H        -0.923587         3.335724         0.027209
 H        -0.867521         1.880405        -1.094891
 H         1.987243         0.445916         2.692010
 H         2.384218         2.989549         1.712856
 H         3.525766         1.847218         1.102924
 H         2.542304         1.896581        -1.705786
 H         0.249453        -1.461260         0.491023
 H         0.425873        -0.511260        -1.097255
 H         1.652910        -1.236647        -0.224224
