19
Iteration:  1995
 C        -1.056517         2.234368        -0.135733
 C         0.133944         1.858840         0.677407
 O         0.289393         1.947312         2.046709
 C         1.640617         1.023120         1.887037
 C         2.677301         1.938552         1.184788
 C         1.535820         2.081294         0.003008
 O         1.721112         2.296722        -1.274452
 C         1.035416         0.645359         0.487564
 C         0.952677        -0.765513        -0.181806
 H        -1.973176         1.851435         0.319873
 H        -1.151927         3.411937        -0.057955
 H        -0.916701         1.969927        -1.103834
 H         1.751107         0.446094         2.687834
 H         3.001104         2.855773         1.745258
 H         3.633725         1.344803         0.938320
 H         2.486636         1.733523        -1.597992
 H         0.018172        -1.327617        -0.015509
 H         0.833297        -0.561148        -1.305550
 H         1.804870        -1.445650        -0.047628
