19
Iteration:  3253charge 0 multiplicity 1
 C        -1.037144         2.314423        -0.181206
 C         0.189292         1.877236         0.542401
 O         0.338818         1.893808         2.109655
 C         1.502725         1.060099         1.908486
 C         2.587536         1.869341         1.139760
 C         1.606302         1.966018        -0.035026
 O         1.810570         2.648385        -1.274211
 C         0.977499         0.537482         0.494588
 C         0.886798        -0.956273        -0.008351
 H        -1.806350         1.619881        -0.046587
 H        -1.421448         3.296764         0.035290
 H        -0.661019         2.321139        -1.189484
 H         1.911436         0.268803         2.594668
 H         3.124403         2.791319         1.440148
 H         3.479002         1.197587         1.034524
 H         2.393344         2.130669        -1.898305
 H         0.408155        -1.675528         0.706995
 H         0.292953        -0.976743        -1.046989
 H         2.019776        -1.284461        -0.336268
