19
Iteration:  3206
 C        -1.118513         2.399113        -0.035490
 C         0.183715         1.898596         0.562370
 O         0.333600         1.902442         2.003762
 C         1.489147         1.034428         1.821416
 C         2.560344         2.026791         1.227115
 C         1.656559         1.906287         0.038905
 O         1.814302         2.410538        -1.270988
 C         1.070268         0.520557         0.422646
 C         0.942983        -0.912473        -0.161742
 H        -1.926812         1.969977         0.657868
 H        -1.250234         3.457472         0.135070
 H        -1.259952         2.176626        -1.071212
 H         1.754812         0.579670         2.710026
 H         2.734266         2.911434         1.815976
 H         3.545183         1.685565         1.047248
 H         2.589810         1.926997        -1.605196
 H         0.272825        -1.476295         0.513583
 H         0.446958        -0.886853        -1.145153
 H         2.005060        -1.459243        -0.308070
