19
Iteration:  3895
 C        -0.973891         2.335909        -0.001503
 C         0.216532         1.768801         0.649055
 O         0.334198         1.867093         2.049711
 C         1.586720         1.043327         1.854013
 C         2.564264         2.025447         1.173538
 C         1.585629         1.919407         0.034278
 O         1.755830         2.390764        -1.274658
 C         0.976947         0.551656         0.483948
 C         0.872730        -0.710528        -0.266415
 H        -1.887780         1.762269         0.133381
 H        -1.075355         3.456765         0.284018
 H        -0.677483         2.455515        -1.063400
 H         1.843813         0.505674         2.769013
 H         2.898521         2.961792         1.712945
 H         3.453435         1.393544         0.911810
 H         1.945620         1.674032        -1.890050
 H         0.122648        -1.403971         0.205938
 H         0.689735        -0.561148        -1.357910
 H         1.987982        -1.207680        -0.242705
