19
Iteration:  1622charge 0 multiplicity 1
 C        -1.092468         2.213421        -0.075749
 C         0.200810         1.907343         0.600820
 O         0.365303         1.988458         1.984124
 C         1.549103         1.034937         1.844549
 C         2.610697         1.936181         1.116761
 C         1.593007         1.903120         0.038418
 O         1.796111         2.419278        -1.240500
 C         0.947777         0.553573         0.491593
 C         0.902345        -0.788073        -0.107843
 H        -1.885729         1.554617        -0.026395
 H        -1.406585         3.150647         0.452639
 H        -0.790063         2.573373        -1.131842
 H         1.839552         0.700076         2.881161
 H         2.941153         2.875876         1.512295
 H         3.498793         1.314803         0.878129
 H         2.720860         2.109364        -1.462489
 H         0.078700        -1.478772         0.208571
 H         0.779547        -0.770405        -1.269042
 H         1.793824        -1.304244         0.137732
