19
Iteration:  3129
 C        -1.023938         2.179467        -0.087853
 C         0.194763         1.808977         0.641418
 O         0.385206         2.002279         2.093583
 C         1.518734         1.024851         1.919822
 C         2.533883         1.933873         1.232168
 C         1.694478         1.949971         0.022205
 O         1.718895         2.337083        -1.305878
 C         1.007312         0.633588         0.467747
 C         0.934180        -0.611665        -0.284684
 H        -1.911108         1.542609         0.137911
 H        -1.198063         3.210579         0.025736
 H        -0.836637         1.974058        -1.143308
 H         1.627583         0.277148         2.681657
 H         2.721790         2.961898         1.647428
 H         3.441154         1.323466         1.165289
 H         2.151162         1.554565        -1.755292
 H         0.026990        -1.230475        -0.003848
 H         0.781619        -0.413878        -1.344906
 H         1.910067        -1.278730         0.043259
