19
Iteration:  1885charge 0 multiplicity 1
 C        -1.032814         2.189312        -0.127265
 C         0.194158         1.869522         0.547355
 O         0.388782         2.059415         2.052485
 C         1.509533         1.056248         1.884000
 C         2.547824         1.807638         1.108982
 C         1.584947         1.931404        -0.041967
 O         1.811716         2.586574        -1.196810
 C         0.991940         0.521406         0.471541
 C         0.905837        -0.843394        -0.061190
 H        -1.778315         1.487502         0.154430
 H        -1.473812         3.251951        -0.016216
 H        -0.891433         2.151307        -1.264368
 H         1.802503         0.603409         2.789517
 H         2.945660         2.632649         1.735331
 H         3.412838         1.073507         0.810045
 H         2.375279         2.111978        -1.806078
 H         0.383187        -1.381749         0.743671
 H         0.351828        -1.059208        -1.019763
 H         1.939237        -1.206635        -0.210012
