19
Iteration:  4186charge 0 multiplicity 1
 C        -1.107783         2.265772        -0.002311
 C         0.148574         1.864194         0.671179
 O         0.448790         1.971631         2.158589
 C         1.518177         1.035319         1.931667
 C         2.697156         1.908363         1.147267
 C         1.633861         1.868399        -0.004698
 O         1.937831         2.408901        -1.325160
 C         1.025781         0.565359         0.365957
 C         0.701490        -0.769183        -0.287887
 H        -2.103821         1.773320         0.275290
 H        -1.287795         3.297701        -0.113455
 H        -0.962253         2.120823        -1.042668
 H         1.765572         0.201785         2.637057
 H         2.904197         2.880204         1.658961
 H         3.551620         1.236476         1.104871
 H         1.380609         3.182381        -1.520140
 H        -0.097023        -1.264545         0.311288
 H         0.279635        -0.696165        -1.320323
 H         1.684820        -1.309330        -0.194472
