19
Iteration:  3690charge 0 multiplicity 1
 C        -1.009813         2.299569         0.014295
 C         0.187653         1.842144         0.625329
 O         0.320726         1.802468         2.064317
 C         1.552203         1.064505         1.904835
 C         2.502745         1.995994         1.105204
 C         1.548955         1.882847        -0.077172
 O         1.898996         2.475667        -1.249167
 C         1.000409         0.641142         0.366982
 C         0.900859        -0.796217        -0.101030
 H        -1.827545         1.543730         0.101204
 H        -1.444112         3.335278         0.261066
 H        -0.872633         2.495038        -1.073832
 H         1.919634         0.421494         2.727542
 H         2.686345         3.000145         1.427894
 H         3.437606         1.466138         0.865494
 H         2.533242         2.046693        -1.856160
 H         0.122583        -1.439693         0.525434
 H         0.478062        -0.924522        -1.169593
 H         1.948081        -1.181312         0.071716
