19
Iteration:  2175charge 0 multiplicity 1
 C        -1.177954         2.090734        -0.011514
 C         0.230857         1.861256         0.572224
 O         0.389757         2.003697         2.016298
 C         1.506089         1.035630         1.832854
 C         2.619028         1.898249         1.246832
 C         1.599368         1.986849        -0.012645
 O         1.845270         2.525998        -1.267336
 C         1.032552         0.621048         0.457621
 C         0.927705        -0.751121        -0.148156
 H        -1.995091         1.694289         0.580461
 H        -1.409105         3.115580        -0.143953
 H        -1.394575         1.652022        -1.085132
 H         1.543678         0.178769         2.602144
 H         3.058106         2.896163         1.662437
 H         3.471066         1.243920         0.922242
 H         2.066187         1.786956        -1.853845
 H         0.019616        -1.324460         0.207050
 H         1.011217        -0.849044        -1.342556
 H         1.716208        -1.391977         0.205585
