19
Iteration:  1872charge 0 multiplicity 1
 C        -1.093432         2.250553        -0.161694
 C         0.219927         1.814289         0.564768
 O         0.404789         2.053989         1.882685
 C         1.548885         1.014348         1.881098
 C         2.618616         1.881552         1.172412
 C         1.585347         1.861086         0.010678
 O         1.746222         2.620620        -1.171701
 C         0.999723         0.525797         0.552098
 C         0.890173        -0.864741        -0.017497
 H        -1.868205         1.573912        -0.017375
 H        -1.317987         3.205005         0.295107
 H        -0.878585         2.323371        -1.335314
 H         1.573183         0.314314         2.766189
 H         3.071848         2.849865         1.514196
 H         3.480683         1.183700         0.746746
 H         2.349156         2.118933        -1.777878
 H         0.304651        -1.608984         0.540477
 H         0.435415        -0.686861        -0.926762
 H         1.894284        -1.475953        -0.218479
