19
Iteration:   907
 C        -0.964153         2.254502        -0.165070
 C         0.158187         1.823122         0.684613
 O         0.287622         1.939643         2.118683
 C         1.546313         1.078004         1.906362
 C         2.610193         1.915420         1.218076
 C         1.580469         1.930540        -0.048467
 O         1.674725         2.514174        -1.315861
 C         1.108196         0.566061         0.469659
 C         0.926035        -0.812867        -0.150023
 H        -1.856138         1.567343         0.109373
 H        -1.143999         3.347376        -0.169709
 H        -0.690638         2.004197        -1.145612
 H         1.583890         0.260655         2.707748
 H         3.032862         2.883173         1.630172
 H         3.387141         1.375804         0.703730
 H         2.460658         2.308557        -1.798239
 H         0.104432        -1.338176         0.337232
 H         0.905736        -0.866067        -1.275091
 H         1.919658        -1.480828         0.062811
