19
Iteration:  4809charge 0 multiplicity 1
 C        -1.066699         2.564632         0.111091
 C         0.171313         1.830344         0.591694
 O         0.350344         1.751356         2.039388
 C         1.554108         1.017357         1.846824
 C         2.601991         2.049154         1.079314
 C         1.682510         1.807083        -0.004362
 O         1.756676         2.290560        -1.261813
 C         1.019312         0.574553         0.444525
 C         0.929557        -0.781977        -0.265612
 H        -2.039424         2.322385         0.646024
 H        -1.107744         3.678713         0.357100
 H        -1.256580         2.330277        -0.944234
 H         1.793007         0.320488         2.699801
 H         2.667012         3.051424         1.568572
 H         3.639171         1.564493         1.137702
 H         1.988841         3.205294        -1.364491
 H         0.320245        -1.372171         0.428458
 H         0.408161        -0.891413        -1.230203
 H         1.866105        -1.259847        -0.404803
