19
Iteration:  1211charge 0 multiplicity 1
 C        -1.050559         2.171324        -0.157656
 C         0.185338         1.749189         0.599282
 O         0.341830         2.029385         2.084962
 C         1.610793         1.064593         1.919663
 C         2.665646         2.006485         1.256237
 C         1.630276         1.906365         0.016490
 O         1.699498         2.381662        -1.309282
 C         0.978623         0.575163         0.573433
 C         0.859122        -0.703369        -0.247555
 H        -2.008625         1.503159        -0.317499
 H        -1.346281         3.227648         0.109170
 H        -0.649415         2.469848        -1.139471
 H         1.744561         0.372514         2.739866
 H         3.011137         2.968098         1.739497
 H         3.573817         1.383397         1.016003
 H         2.392458         1.796364        -1.659243
 H         0.238778        -1.477273         0.271604
 H         0.582455        -0.468561        -1.273297
 H         1.935822        -1.212589        -0.426565
