19
Iteration:  3413charge 0 multiplicity 1
 C        -1.054371         2.398658        -0.088192
 C         0.106212         1.840591         0.674991
 O         0.392635         1.918021         2.092529
 C         1.506243         0.994078         1.820306
 C         2.589939         1.993579         1.187842
 C         1.563352         1.974814         0.013603
 O         1.761993         2.364846        -1.301762
 C         1.009872         0.566668         0.443339
 C         1.013904        -0.884902        -0.191385
 H        -2.099097         2.082651         0.322802
 H        -1.070283         3.472795         0.130711
 H        -1.058202         2.134121        -1.136267
 H         1.679031         0.359635         2.667683
 H         2.772945         3.048482         1.579303
 H         3.576907         1.471718         1.008868
 H         2.751163         2.331007        -1.426521
 H         0.395534        -1.706388         0.337931
 H         0.423469        -0.793392        -1.094154
 H         2.021754        -1.158670        -0.385409
