19
Iteration:  2024charge 0 multiplicity 1
 C        -1.086400         2.224150        -0.063070
 C         0.191832         1.923149         0.601011
 O         0.406376         1.980271         2.031354
 C         1.388920         1.054872         1.911938
 C         2.602158         1.813322         1.119854
 C         1.636523         1.855639        -0.068461
 O         1.712023         2.493409        -1.274396
 C         0.991297         0.617706         0.453039
 C         1.052769        -0.752668        -0.049171
 H        -1.879550         1.531003         0.106715
 H        -1.470736         3.179186         0.229770
 H        -0.813183         2.351656        -1.226927
 H         1.575017         0.346265         2.818185
 H         2.870362         2.771427         1.498484
 H         3.412588         1.101127         1.086897
 H         2.421938         2.109425        -1.831154
 H         0.312902        -1.453625         0.339214
 H         0.906920        -0.768269        -1.080494
 H         2.132171        -1.199664         0.069022
