19
Iteration:   319charge 0 multiplicity 1
 C        -1.009429         2.377138        -0.071055
 C         0.077526         1.656620         0.696239
 O         0.313005         1.827848         2.015776
 C         1.620896         1.098931         1.907375
 C         2.508902         2.204746         1.166443
 C         1.687541         1.860561        -0.037008
 O         1.795174         2.354687        -1.269264
 C         1.111504         0.571899         0.440332
 C         0.834975        -0.824177        -0.190102
 H        -2.105746         2.165287         0.143363
 H        -0.997427         3.448564         0.196306
 H        -0.687837         2.350060        -1.169865
 H         2.069885         0.590971         2.780899
 H         2.365275         3.335478         1.607709
 H         3.684309         1.985474         1.232403
 H         2.311715         1.791144        -1.836615
 H         0.034129        -1.253509         0.201092
 H         0.762735        -0.668509        -1.225249
 H         1.540429        -1.651979         0.161059
