19
Iteration:  4323charge 0 multiplicity 1
 C        -1.105590         2.333062         0.066761
 C         0.206559         1.870250         0.709458
 O         0.422314         1.987884         2.041739
 C         1.514190         1.065404         1.864079
 C         2.591373         1.846761         1.185283
 C         1.638700         1.828894        -0.013384
 O         1.851520         2.205975        -1.286347
 C         0.918768         0.633062         0.409916
 C         0.928272        -0.625313        -0.310985
 H        -1.803517         1.619770         0.298260
 H        -1.143099         3.388042         0.356926
 H        -1.126144         2.554481        -0.988044
 H         1.869020         0.503029         2.788806
 H         3.037123         2.674926         1.700566
 H         3.379243         1.119654         0.957238
 H         1.192021         2.825483        -1.638629
 H         0.049498        -1.233107         0.173089
 H         0.616582        -0.436826        -1.399733
 H         1.941250        -1.178486        -0.285265
