19
Iteration:  1928charge 0 multiplicity 1
 C        -1.117305         2.219041        -0.060491
 C         0.221397         1.803000         0.549397
 O         0.343298         1.840122         2.025652
 C         1.589319         1.119158         1.905671
 C         2.504577         2.032539         1.224315
 C         1.628988         1.986560         0.043852
 O         1.855462         2.300891        -1.307062
 C         1.142606         0.600261         0.401407
 C         0.790762        -0.689703        -0.148733
 H        -1.847567         2.061601         0.653401
 H        -1.061536         3.353671        -0.074997
 H        -1.425852         1.951657        -1.111612
 H         1.908652         0.570815         2.737412
 H         2.571158         3.026566         1.683802
 H         3.554717         1.573820         1.051446
 H         2.688812         1.848103        -1.418513
 H         0.165865        -1.288243         0.514773
 H         0.159644        -0.512211        -1.016533
 H         1.678612        -1.324852        -0.522896
