19
Iteration:  3454
 C        -0.934976         2.516594        -0.077881
 C         0.208642         1.661116         0.568712
 O         0.264952         1.779243         2.041388
 C         1.544982         1.054306         1.909174
 C         2.551014         2.172051         1.182982
 C         1.671554         1.953835        -0.000947
 O         1.649775         2.464636        -1.350641
 C         1.180312         0.418390         0.489360
 C         0.860431        -0.879686        -0.112568
 H        -1.839934         2.137419         0.149511
 H        -0.708749         3.486028         0.328561
 H        -0.814387         2.566135        -1.134567
 H         1.920234         0.458385         2.670841
 H         2.464326         3.004250         1.859268
 H         3.416433         1.545379         1.058173
 H         2.422722         2.160339        -1.843089
 H         0.230607        -1.415289         0.717232
 H         0.162144        -0.744190        -0.964729
 H         1.815271        -1.493979        -0.420300
