19
Iteration:  3260
 C        -1.003043         2.294193        -0.206150
 C         0.227889         1.833461         0.586415
 O         0.390427         1.920033         2.045983
 C         1.507581         1.044433         1.886069
 C         2.577327         1.944876         1.156629
 C         1.630580         1.905904         0.014171
 O         1.762452         2.619388        -1.203939
 C         0.952556         0.579977         0.449563
 C         0.852989        -0.955508        -0.070134
 H        -1.826563         1.464520        -0.004852
 H        -1.323757         3.299345         0.125388
 H        -0.732389         2.423743        -1.268517
 H         1.834346         0.491888         2.721770
 H         2.983446         2.924060         1.432835
 H         3.332766         1.237247         0.869811
 H         2.422426         2.048291        -1.668664
 H         0.437141        -1.481060         0.745446
 H         0.384387        -1.037111        -0.985734
 H         1.781361        -1.387361        -0.252876
