19
Iteration:   651
 C        -1.005415         2.134335        -0.176535
 C         0.217702         1.890353         0.644623
 O         0.354714         1.970097         2.118737
 C         1.513404         1.067500         1.903588
 C         2.601022         1.976080         1.204856
 C         1.651677         1.968244         0.013235
 O         1.718947         2.449120        -1.301573
 C         0.970664         0.571712         0.507590
 C         0.851435        -0.788738        -0.197206
 H        -1.765931         1.531236         0.226678
 H        -1.251088         3.190147        -0.306547
 H        -0.799269         1.796160        -1.222937
 H         1.714529         0.446644         2.644341
 H         2.947682         2.868440         1.700469
 H         3.515580         1.437450         0.896397
 H         2.592031         2.212161        -1.710167
 H         0.427811        -1.672619         0.411466
 H         0.532023        -0.768078        -1.298531
 H         1.986513        -1.201287        -0.227675
