19
Iteration:  1524
 C        -0.964905         2.300860        -0.115415
 C         0.205175         1.772903         0.623158
 O         0.320380         1.817428         2.117134
 C         1.544432         1.112522         1.892653
 C         2.542848         2.190082         1.149695
 C         1.691276         1.887681        -0.028120
 O         1.817337         2.363660        -1.272709
 C         1.072555         0.556174         0.513772
 C         0.744798        -0.786005        -0.217468
 H        -1.869259         2.216501         0.389141
 H        -0.799383         3.394115        -0.172480
 H        -0.964071         1.848443        -1.157064
 H         1.773843         0.403497         2.802459
 H         2.539823         3.155083         1.597302
 H         3.552587         1.763614         1.276029
 H         2.393061         1.712212        -1.767915
 H         0.144250        -1.507548         0.362075
 H         0.113854        -0.604933        -1.208508
 H         1.573104        -1.319567        -0.464609
