19
Iteration:  4816charge 0 multiplicity 1
 C        -1.078193         2.572994         0.102558
 C         0.210227         1.789279         0.606669
 O         0.380215         1.738046         1.988413
 C         1.554104         1.024663         1.841345
 C         2.632617         2.056328         1.155588
 C         1.646765         1.841081         0.010571
 O         1.748103         2.317133        -1.334325
 C         0.974034         0.536883         0.425527
 C         0.908725        -0.770908        -0.184878
 H        -1.839697         2.030114         0.643237
 H        -0.870195         3.581546         0.287337
 H        -1.365985         2.424689        -0.915646
 H         1.859840         0.394200         2.635274
 H         2.619083         3.069274         1.586663
 H         3.545028         1.564312         1.345082
 H         2.052715         3.224616        -1.199139
 H         0.244050        -1.601262         0.346618
 H         0.371521        -0.573815        -1.165961
 H         1.846445        -1.245569        -0.543373
