19
Iteration:  2871charge 0 multiplicity 1
 C        -0.988170         2.342261        -0.114012
 C         0.168879         1.734949         0.587643
 O         0.291383         1.854181         2.079989
 C         1.532388         1.010826         1.889776
 C         2.569516         2.016092         1.264089
 C         1.631243         1.898249        -0.020915
 O         1.700504         2.511366        -1.335915
 C         1.144891         0.548987         0.452018
 C         0.925529        -0.730731        -0.126769
 H        -1.866959         1.691909        -0.101115
 H        -1.160526         3.391957         0.186248
 H        -0.792907         2.428787        -1.185399
 H         1.838154         0.391374         2.618698
 H         2.717697         2.895968         1.810674
 H         3.468978         1.450088         1.168096
 H         2.282836         1.839212        -1.776623
 H         0.346995        -1.427906         0.473868
 H         0.349719        -0.584839        -0.969826
 H         1.823900        -1.398045        -0.328442
