19
Iteration:  1116charge 0 multiplicity 1
 C        -1.070776         2.297246        -0.044160
 C         0.175890         1.749943         0.672836
 O         0.323700         1.809588         2.050093
 C         1.589799         1.128277         1.866677
 C         2.533498         2.147812         1.252163
 C         1.637950         1.990683        -0.037422
 O         1.884985         2.446539        -1.336723
 C         1.058407         0.554560         0.396122
 C         0.816779        -0.912666        -0.151334
 H        -2.088411         1.978694         0.264228
 H        -1.014535         3.405111         0.000533
 H        -1.039360         2.178074        -1.209272
 H         1.900696         0.468674         2.631612
 H         2.568428         3.091305         1.844865
 H         3.452032         1.632089         1.207820
 H         2.596009         1.919980        -1.818375
 H         0.034387        -1.376896         0.518844
 H         0.373921        -0.997818        -1.283619
 H         1.675752        -1.495154        -0.047777
