19
Iteration:  4322charge 0 multiplicity 1
 C        -1.101323         2.331101         0.066762
 C         0.220802         1.867790         0.713890
 O         0.412770         1.989727         2.043534
 C         1.508305         1.061205         1.860282
 C         2.591319         1.847861         1.181296
 C         1.637676         1.833151        -0.006035
 O         1.849729         2.208294        -1.295641
 C         0.924415         0.631337         0.410269
 C         0.929289        -0.618699        -0.300842
 H        -1.827891         1.638774         0.311511
 H        -1.117168         3.360590         0.398832
 H        -1.135046         2.555565        -1.007838
 H         1.847436         0.487832         2.746156
 H         3.023145         2.682506         1.695518
 H         3.391366         1.099214         0.973259
 H         1.214015         2.818050        -1.659832
 H         0.046773        -1.263008         0.174743
 H         0.613996        -0.445408        -1.420057
 H         1.918249        -1.182605        -0.302728
