19
Iteration:  4623charge 0 multiplicity 1
 C        -1.014657         2.321230        -0.001910
 C         0.182675         1.800498         0.658944
 O         0.417963         1.965191         2.060598
 C         1.497735         0.967242         1.860841
 C         2.650357         1.818275         1.162001
 C         1.600965         1.997395        -0.028646
 O         1.859986         2.505743        -1.375562
 C         1.010141         0.554282         0.502765
 C         0.758364        -0.825060        -0.200422
 H        -1.928417         1.749401         0.256031
 H        -1.094581         3.327635         0.372780
 H        -0.710376         2.090907        -0.976298
 H         1.567814         0.248378         2.633431
 H         2.888735         2.747240         1.660912
 H         3.624888         1.340191         1.085454
 H         1.293288         3.278325        -1.338881
 H         0.296899        -1.467074         0.531121
 H         0.337654        -0.787114        -1.209274
 H         1.750491        -1.296647        -0.441042
