19
Iteration:   391
 C        -1.202952         2.103055        -0.088181
 C         0.211994         1.899199         0.601497
 O         0.373704         1.999304         2.024905
 C         1.515614         1.097166         1.893578
 C         2.603891         1.872800         1.173283
 C         1.657612         1.967680         0.016323
 O         1.881370         2.480148        -1.285185
 C         0.983883         0.599220         0.457740
 C         0.879905        -0.784603        -0.143474
 H        -1.900511         1.413338         0.306136
 H        -1.604964         3.109953         0.113504
 H        -1.011208         2.012220        -1.156256
 H         1.616339         0.619968         2.815250
 H         2.969298         2.735024         1.584796
 H         3.409020         1.218252         0.946027
 H         2.700763         2.069541        -1.543468
 H         0.520911        -1.586586         0.572905
 H         0.320001        -0.749171        -1.113719
 H         1.794442        -1.184267        -0.308882
