19
Iteration:  3938
 C        -1.071033         2.146013         0.084886
 C         0.163197         1.880491         0.651552
 O         0.395001         1.966049         2.091186
 C         1.513336         1.071520         1.909465
 C         2.612761         1.888621         1.247704
 C         1.613377         1.969131        -0.036609
 O         1.898495         2.337335        -1.429435
 C         0.987136         0.631645         0.479314
 C         0.800176        -0.738062        -0.325129
 H        -1.904799         1.546135         0.341167
 H        -1.405290         3.243991         0.240109
 H        -1.087839         2.034078        -0.985256
 H         1.794210         0.379668         2.721160
 H         2.862293         2.875679         1.717146
 H         3.503801         1.277296         1.051753
 H         2.382225         3.160779        -1.206254
 H         0.027568        -1.315754         0.170661
 H         0.638881        -0.511960        -1.375032
 H         1.762531        -1.366976        -0.418106
