19
Iteration:  2985
 C        -1.123338         2.172738        -0.110695
 C         0.169808         1.802508         0.634487
 O         0.389261         2.007767         2.080001
 C         1.547391         1.087099         1.941616
 C         2.642234         1.932556         1.280166
 C         1.625604         1.903552        -0.018908
 O         1.784876         2.511340        -1.280453
 C         0.997227         0.543477         0.481602
 C         0.885647        -0.770539        -0.264944
 H        -2.033871         1.639246         0.000023
 H        -1.043295         3.228117        -0.201290
 H        -0.821433         1.876143        -1.162622
 H         1.955723         0.397102         2.870634
 H         2.709115         2.938315         1.814324
 H         3.550309         1.329897         1.025216
 H         2.080345         1.847000        -1.934374
 H         0.086520        -1.505373        -0.100628
 H         0.694017        -0.351378        -1.195694
 H         1.793835        -1.379698        -0.236909
