19
Iteration:  4618charge 0 multiplicity 1
 C        -1.028369         2.319610        -0.003712
 C         0.212422         1.800629         0.644453
 O         0.422740         1.977794         2.096718
 C         1.476018         0.935714         1.900898
 C         2.623619         1.815917         1.139361
 C         1.598988         1.943207        -0.060383
 O         1.857131         2.511253        -1.369645
 C         1.005079         0.540198         0.478729
 C         0.820843        -0.755625        -0.201065
 H        -1.972488         1.821684         0.257405
 H        -1.190268         3.427034         0.272987
 H        -0.685299         2.215113        -1.123095
 H         1.753134         0.212978         2.747016
 H         2.881104         2.773155         1.732330
 H         3.549638         1.210468         0.973477
 H         1.201218         3.270428        -1.390671
 H         0.205954        -1.473189         0.476909
 H         0.209477        -0.815230        -1.129450
 H         1.769103        -1.291048        -0.251089
