19
Iteration:  2441
 C        -1.067680         2.294522        -0.053234
 C         0.202910         1.745823         0.541757
 O         0.343210         1.942708         2.011029
 C         1.470805         1.109168         1.910027
 C         2.577082         1.987086         1.155910
 C         1.660856         1.801316        -0.023950
 O         1.702944         2.560414        -1.178702
 C         1.030267         0.491233         0.463219
 C         1.011949        -0.804230        -0.177305
 H        -2.007479         1.775547         0.101370
 H        -1.240458         3.344350         0.300327
 H        -0.913933         2.393661        -1.059110
 H         1.631628         0.442671         2.725470
 H         2.796392         2.996253         1.563107
 H         3.490392         1.320406         0.964007
 H         2.332740         2.081938        -1.741228
 H         0.575496        -1.574851         0.483408
 H         0.517629        -0.860309        -1.132476
 H         2.132870        -1.092774        -0.334379
