19
Iteration:  1362
 C        -0.971789         2.187334        -0.164316
 C         0.163664         1.807687         0.639496
 O         0.344907         1.947866         2.149816
 C         1.575872         1.073173         1.985467
 C         2.608295         2.032941         1.142923
 C         1.605093         1.927538         0.040935
 O         1.782183         2.288857        -1.307933
 C         1.018035         0.610715         0.512880
 C         0.782931        -0.657839        -0.267936
 H        -1.882972         1.621669        -0.099815
 H        -1.330917         3.247007        -0.028968
 H        -0.621590         2.022011        -1.197992
 H         1.902915         0.418548         2.873161
 H         2.704943         3.111083         1.380223
 H         3.593112         1.561506         0.923884
 H         2.569604         1.808537        -1.589683
 H         0.180756        -1.415196         0.196576
 H         0.323630        -0.481915        -1.234043
 H         1.831392        -1.087376        -0.374683
