19
Iteration:  1942
 C        -1.021330         2.278268         0.037792
 C         0.222620         1.706537         0.567183
 O         0.332839         1.877760         1.989311
 C         1.550573         1.113583         1.915934
 C         2.521391         2.271129         1.290971
 C         1.629320         1.936398        -0.012368
 O         1.853768         2.268158        -1.304582
 C         1.165047         0.525433         0.481809
 C         0.734659        -0.780972        -0.307881
 H        -1.851419         1.991336         0.761898
 H        -0.929314         3.420569        -0.109438
 H        -1.248823         1.809924        -0.846445
 H         1.714187         0.585427         2.811094
 H         2.611314         3.264643         1.801364
 H         3.510532         1.823522         1.130501
 H         2.599947         1.758359        -1.717711
 H         0.030452        -1.313795         0.349871
 H         0.180028        -0.466481        -1.304447
 H         1.468781        -1.446387        -0.534314
