19
Iteration:  1933charge 0 multiplicity 1
 C        -1.071537         2.228125        -0.042898
 C         0.222039         1.774483         0.542221
 O         0.369864         1.841731         2.006600
 C         1.564256         1.140556         1.928488
 C         2.502776         2.119144         1.248133
 C         1.609077         1.978024         0.029539
 O         1.850115         2.279534        -1.297732
 C         1.162044         0.598700         0.407880
 C         0.771050        -0.744451        -0.203804
 H        -1.904095         2.054826         0.776733
 H        -0.940098         3.330587        -0.036401
 H        -1.479335         1.960991        -1.003890
 H         1.879365         0.465681         2.818444
 H         2.594089         3.118415         1.722514
 H         3.430645         1.647671         1.158043
 H         2.697825         1.780210        -1.482460
 H         0.077978        -1.275424         0.479873
 H         0.142316        -0.449099        -1.152768
 H         1.564616        -1.342173        -0.559676
