19
Iteration:  2376
 C        -1.109949         2.113949        -0.087105
 C         0.175147         1.857677         0.606593
 O         0.309289         1.731107         2.120197
 C         1.617511         1.011934         1.824220
 C         2.604167         2.195804         1.260191
 C         1.635491         1.995365         0.035539
 O         1.852548         2.363374        -1.318827
 C         1.120763         0.648044         0.401825
 C         0.727524        -0.666575        -0.190677
 H        -1.987168         1.683716         0.382376
 H        -1.350524         3.177159        -0.215424
 H        -0.985432         1.682735        -1.009249
 H         2.043171         0.437848         2.627319
 H         2.690044         3.165980         1.741420
 H         3.599865         1.846556         0.885804
 H         2.821980         2.189397        -1.481633
 H        -0.191688        -1.087660         0.210765
 H         0.712699        -0.602539        -1.213143
 H         1.502806        -1.510603         0.026579
