19
Iteration:   803
 C        -1.091583         2.132083        -0.125370
 C         0.205804         1.815859         0.618365
 O         0.389505         2.008992         2.086673
 C         1.538167         1.106942         1.941073
 C         2.602949         2.009800         1.294192
 C         1.553251         1.994241         0.025998
 O         1.784182         2.366690        -1.322539
 C         1.004339         0.584837         0.463582
 C         0.926744        -0.766493        -0.313790
 H        -1.872543         1.468644         0.144669
 H        -1.390820         3.144828         0.246555
 H        -0.866199         2.026924        -1.250152
 H         1.651720         0.556805         2.868187
 H         2.989221         2.866207         1.803777
 H         3.444708         1.326708         1.018834
 H         2.642960         1.897167        -1.590270
 H         0.448797        -1.513939         0.378686
 H         0.161087        -0.799117        -1.097137
 H         1.827909        -1.131474        -0.614348
