19
Iteration:  4761
 C        -1.118740         2.392377         0.026283
 C         0.211003         1.865631         0.606319
 O         0.426905         1.955811         2.084109
 C         1.558248         0.957807         1.870838
 C         2.667005         1.832507         1.115471
 C         1.575832         1.864818         0.074616
 O         1.799225         2.292740        -1.305356
 C         0.913309         0.596247         0.473326
 C         0.958334        -0.659028        -0.276788
 H        -2.015281         1.937674         0.420870
 H        -1.360289         3.365061         0.358668
 H        -1.159834         2.281288        -1.053153
 H         1.750576         0.398410         2.759579
 H         2.944986         2.762312         1.648158
 H         3.565163         1.325028         0.837262
 H         1.198626         3.071755        -1.380299
 H         0.165899        -1.498135        -0.119218
 H         0.861123        -0.376983        -1.347013
 H         1.951699        -1.085013        -0.281473
