19
Iteration:   315
 C        -1.035801         2.432764        -0.046383
 C         0.102557         1.650269         0.639493
 O         0.336668         1.829497         2.032769
 C         1.616361         1.075171         1.883294
 C         2.455372         2.210080         1.205759
 C         1.697133         1.854461        -0.031735
 O         1.799000         2.359849        -1.293584
 C         1.090479         0.549792         0.450400
 C         0.888320        -0.779607        -0.155032
 H        -1.973042         1.906773         0.129165
 H        -0.920393         3.483076         0.158707
 H        -0.757214         2.215345        -1.093491
 H         2.014254         0.598391         2.738152
 H         2.390441         3.175594         1.538772
 H         3.451974         1.890011         1.049267
 H         2.384872         1.694099        -1.788117
 H        -0.190459        -1.233589         0.286160
 H         0.760424        -0.777462        -1.293688
 H         1.588736        -1.529923         0.082436
