19
Iteration:     9
 C        -0.998684         2.307574        -0.037199
 C         0.260566         1.810962         0.624770
 O         0.337498         1.856107         1.972935
 C         1.550200         1.107072         1.868031
 C         2.535356         2.104141         1.209152
 C         1.612527         1.933414         0.023268
 O         1.776951         2.329660        -1.306212
 C         1.019689         0.550906         0.448870
 C         0.869525        -0.787468        -0.160850
 H        -1.916974         1.849697         0.233011
 H        -1.277827         3.307637         0.139327
 H        -0.981021         2.125909        -1.040216
 H         1.798687         0.602008         2.983461
 H         2.648611         3.063638         1.834301
 H         3.509259         1.481963         1.142473
 H         2.399610         1.723562        -1.694332
 H         0.139954        -1.160999         0.423898
 H         0.366022        -0.605469        -1.134035
 H         1.985908        -1.310063        -0.290699
