19
Iteration:  1895charge 0 multiplicity 1
 C        -1.061741         2.167899        -0.129878
 C         0.216658         1.858767         0.641300
 O         0.370049         1.996142         2.124779
 C         1.448514         1.106558         1.831973
 C         2.594867         1.824665         1.133893
 C         1.632514         1.947641        -0.019049
 O         1.850514         2.562336        -1.284699
 C         0.924971         0.616378         0.416209
 C         0.878582        -0.848203        -0.074007
 H        -1.818739         1.539685         0.207364
 H        -1.331572         3.251214         0.024294
 H        -0.833543         1.838014        -1.220124
 H         1.692448         0.579333         2.744601
 H         2.924167         2.823876         1.453033
 H         3.511785         1.102862         0.955636
 H         2.527449         2.007511        -1.720686
 H         0.547276        -1.550512         0.701023
 H         0.349968        -1.020672        -1.009395
 H         1.978347        -1.204467        -0.197861
