19
Iteration:   876
 C        -1.062408         2.287194        -0.056443
 C         0.237052         1.800536         0.537968
 O         0.318309         1.868726         1.976983
 C         1.565875         1.041095         1.837082
 C         2.540717         2.093391         1.200347
 C         1.601621         1.924202         0.013044
 O         1.810541         2.456286        -1.224231
 C         1.086653         0.521757         0.474302
 C         0.858764        -0.807329        -0.116561
 H        -1.827506         1.855212         0.564600
 H        -1.167622         3.339511         0.121961
 H        -1.214910         1.945848        -1.024097
 H         1.786908         0.327076         2.712423
 H         2.542352         3.128064         1.663971
 H         3.491281         1.747030         0.803237
 H         2.578245         2.168938        -1.788244
 H         0.024000        -1.423662         0.188616
 H         0.654431        -0.808658        -1.142286
 H         1.825558        -1.436604         0.159827
