19
Iteration:   774charge 0 multiplicity 1
 C        -0.965341         2.163701        -0.158019
 C         0.263859         1.796810         0.571786
 O         0.339111         1.968447         2.027822
 C         1.510242         1.098778         1.951063
 C         2.552313         2.038077         1.192344
 C         1.625084         1.784439        -0.005825
 O         1.673143         2.415904        -1.203895
 C         1.033389         0.549058         0.542424
 C         0.915902        -0.646171        -0.195428
 H        -1.769176         1.409216         0.101960
 H        -1.285720         3.126929         0.223407
 H        -0.843372         2.348746        -1.219229
 H         1.636511         0.534543         2.823399
 H         3.034224         2.961436         1.552843
 H         3.419167         1.373848         1.009882
 H         2.199388         1.963600        -1.869621
 H         0.378735        -1.400820         0.367433
 H         0.528779        -0.477545        -1.276921
 H         1.967885        -1.031658        -0.685484
