19
Iteration:  2037charge 0 multiplicity 1
 C        -1.066024         2.300112        -0.034742
 C         0.209287         1.819124         0.606648
 O         0.295545         2.087362         2.010189
 C         1.545109         1.047350         1.836057
 C         2.556203         1.908802         1.142655
 C         1.629522         1.809347        -0.041677
 O         1.789209         2.549799        -1.249096
 C         0.934342         0.494939         0.490899
 C         1.022130        -0.886692        -0.111136
 H        -1.735455         1.491887         0.109095
 H        -1.462641         3.219413         0.501656
 H        -1.005521         2.453250        -1.129702
 H         1.614259         0.537644         2.740827
 H         2.834363         2.839102         1.561976
 H         3.502449         1.348473         0.914103
 H         2.349419         2.120846        -1.925034
 H         0.407052        -1.579223         0.472575
 H         0.719239        -0.882547        -1.105368
 H         2.142176        -1.277451        -0.000206
