19
Iteration:   808
 C        -1.072877         2.141365        -0.107949
 C         0.185010         1.835831         0.620698
 O         0.389108         1.989739         2.084484
 C         1.513635         1.106548         1.927402
 C         2.572829         2.037708         1.282104
 C         1.551926         1.968574         0.039579
 O         1.816817         2.355826        -1.322441
 C         1.045374         0.603324         0.437597
 C         0.897614        -0.761901        -0.316360
 H        -1.899801         1.424358         0.223952
 H        -1.360834         3.121509         0.249886
 H        -0.934055         1.996728        -1.145875
 H         1.763211         0.490019         2.829137
 H         3.023429         2.928402         1.811570
 H         3.242671         1.308730         0.810217
 H         2.630906         1.901549        -1.461342
 H         0.532591        -1.506259         0.390835
 H         0.068707        -0.816219        -1.076192
 H         2.008341        -1.173619        -0.440210
