19
Iteration:  4057charge 0 multiplicity 1
 C        -0.991630         2.432785        -0.018156
 C         0.311875         1.881411         0.648169
 O         0.346086         1.893725         2.061885
 C         1.537225         0.983159         1.863539
 C         2.573412         1.870196         1.106922
 C         1.640645         1.848398         0.003422
 O         1.685484         2.485271        -1.275207
 C         1.018654         0.528066         0.447880
 C         0.832099        -0.811608        -0.162278
 H        -1.895878         1.818275         0.088419
 H        -1.296885         3.541156         0.024976
 H        -0.862665         2.229423        -1.096058
 H         1.794283         0.273091         2.699706
 H         2.796596         2.850135         1.508986
 H         3.483717         1.346082         0.910462
 H         2.598464         2.771193        -1.367426
 H         0.310717        -1.442393         0.544697
 H         0.460955        -0.603430        -1.170009
 H         1.727424        -1.267208        -0.419399
