19
Iteration:  1463charge 0 multiplicity 1
 C        -1.048175         2.292377        -0.107279
 C         0.239083         1.926603         0.647500
 O         0.335949         1.937817         2.021888
 C         1.515895         1.074088         1.810523
 C         2.561349         1.815813         1.064479
 C         1.574440         1.880470        -0.029991
 O         1.799898         2.510344        -1.231195
 C         0.975256         0.616192         0.467625
 C         0.946781        -0.848153        -0.033527
 H        -1.991825         1.668795         0.315710
 H        -1.228421         3.430158        -0.058506
 H        -1.030328         2.111640        -1.150477
 H         1.614363         0.409274         2.638200
 H         2.780404         2.817235         1.621599
 H         3.389356         1.133804         0.873655
 H         2.728322         2.286622        -1.539686
 H         0.224807        -1.395071         0.591686
 H         0.742346        -1.065672        -1.020919
 H         2.111046        -1.276031         0.225481
