19
Iteration:  2641charge 0 multiplicity 1
 C        -1.020132         2.313364         0.065395
 C         0.202097         1.718844         0.590823
 O         0.256135         1.780077         1.990232
 C         1.492976         1.092196         1.862851
 C         2.449110         2.121893         1.183196
 C         1.611881         1.956712        -0.067703
 O         1.881118         2.451095        -1.328870
 C         1.080215         0.560564         0.356095
 C         0.897113        -0.830292        -0.073922
 H        -1.860106         1.727059         0.474318
 H        -0.901972         3.261994         0.469138
 H        -1.222048         2.577886        -1.016976
 H         1.907938         0.287926         2.658947
 H         2.694135         3.141116         1.767713
 H         3.537408         1.771307         0.990294
 H         2.870409         2.357538        -1.331565
 H         0.474473        -1.437974         0.718819
 H         0.460933        -0.867519        -0.990079
 H         1.968711        -1.350145        -0.351637
