19
Iteration:   164charge 0 multiplicity 1
 C        -1.021286         2.248191        -0.069822
 C         0.198248         1.749600         0.607922
 O         0.317619         1.813930         2.042751
 C         1.576286         1.074674         1.840942
 C         2.550229         2.199592         1.225272
 C         1.661695         1.868969        -0.048967
 O         1.827904         2.451674        -1.322647
 C         1.146897         0.520340         0.462922
 C         0.706795        -0.779619        -0.056573
 H        -1.922936         1.875421         0.317160
 H        -1.088254         3.289939         0.067321
 H        -0.851565         2.058819        -1.096668
 H         2.063609         0.481342         2.604667
 H         2.379568         3.270757         1.620526
 H         3.678140         2.043937         1.238978
 H         2.448892         1.907367        -1.901965
 H        -0.185313        -1.082069         0.304156
 H         0.556353        -0.576024        -1.149531
 H         1.461717        -1.732801        -0.083854
