19
Iteration:  1012
 C        -1.132454         2.221078         0.047513
 C         0.174946         1.835321         0.628869
 O         0.307241         1.877590         2.092694
 C         1.482302         1.058901         1.879711
 C         2.503867         2.098669         1.252756
 C         1.599358         1.976295        -0.030465
 O         1.974735         2.324769        -1.382259
 C         1.091576         0.623827         0.380801
 C         0.890794        -0.767328        -0.205909
 H        -1.992908         1.694394         0.449839
 H        -1.388689         3.275769         0.228955
 H        -1.199909         2.078392        -1.036893
 H         1.852295         0.503266         2.757126
 H         2.806215         3.074054         1.632857
 H         3.432499         1.457294         1.069518
 H         2.741889         1.805638        -1.643070
 H         0.299082        -1.498768         0.389294
 H         0.326316        -0.616405        -1.228448
 H         1.981666        -1.199392        -0.444581
