19
Iteration:  1049charge 0 multiplicity 1
 C        -1.129249         2.182029        -0.196009
 C         0.166744         1.799296         0.619000
 O         0.421861         2.018457         2.034113
 C         1.538981         1.077960         1.925409
 C         2.576424         1.941378         1.214928
 C         1.668919         1.843294         0.018213
 O         1.719446         2.520743        -1.225977
 C         1.084942         0.561728         0.509727
 C         0.899828        -0.790513        -0.194752
 H        -2.054964         1.644599         0.322136
 H        -1.114362         3.290512        -0.040988
 H        -0.919121         2.013106        -1.270701
 H         1.586997         0.520465         2.880235
 H         2.922415         2.962801         1.520945
 H         3.395679         1.251916         1.029386
 H         2.348412         2.035365        -1.740277
 H         0.119680        -1.459583         0.233702
 H         0.719858        -0.538149        -1.360207
 H         1.748815        -1.350701        -0.274130
