19
Iteration:  2905charge 0 multiplicity 1
 C        -1.058704         2.394098         0.097983
 C         0.219511         1.761146         0.593528
 O         0.298064         1.888947         1.982508
 C         1.547309         1.061445         1.874964
 C         2.489194         2.205847         1.180951
 C         1.526684         1.876701        -0.015766
 O         1.895683         2.274506        -1.261761
 C         1.035174         0.456596         0.458253
 C         0.936251        -0.788950        -0.300596
 H        -1.872339         1.767286         0.434138
 H        -1.324198         3.385534         0.555742
 H        -1.036707         2.439931        -0.951668
 H         1.843861         0.539000         2.715464
 H         2.455597         3.118370         1.710238
 H         3.487425         1.868682         1.105173
 H         2.864810         2.223843        -1.262575
 H         0.168290        -1.366739         0.123439
 H         0.695481        -0.524275        -1.231939
 H         1.963475        -1.307947        -0.424949
