19
Iteration:  3488charge 0 multiplicity 1
 C        -1.041722         2.299681        -0.061602
 C         0.271379         1.816932         0.556863
 O         0.354478         1.838931         2.034625
 C         1.538948         0.988605         1.821167
 C         2.555477         2.026656         1.177849
 C         1.683522         1.918820        -0.017759
 O         1.769523         2.515497        -1.293056
 C         1.002690         0.574789         0.475664
 C         0.824159        -0.776681        -0.070019
 H        -1.799886         1.603343         0.058546
 H        -1.516649         3.200573         0.259660
 H        -0.851309         2.295677        -1.093470
 H         1.835707         0.411418         2.654405
 H         2.741376         2.914604         1.791402
 H         3.585063         1.686078         1.148187
 H         2.360081         1.998962        -1.834862
 H         0.052124        -1.384262         0.582240
 H         0.487965        -0.861312        -1.116303
 H         1.801614        -1.345736         0.077984
