19
Iteration:   329
 C        -0.965305         2.335212        -0.088241
 C         0.126303         1.661419         0.657371
 O         0.286537         1.826644         2.097618
 C         1.608463         1.188484         1.884384
 C         2.575484         2.196763         1.161144
 C         1.671394         1.866561         0.002952
 O         1.774511         2.383071        -1.294998
 C         1.093156         0.534243         0.461709
 C         0.802041        -0.854081        -0.193564
 H        -2.022607         1.977445         0.014426
 H        -0.833929         3.349736         0.264877
 H        -0.790141         2.408128        -1.213485
 H         1.794337         0.590648         2.773716
 H         2.334045         3.257493         1.598923
 H         3.707716         1.930328         1.219497
 H         2.282632         1.819745        -1.858184
 H        -0.160053        -1.171438         0.087376
 H         0.750255        -0.777336        -1.258831
 H         1.714574        -1.519212        -0.112416
