19
Iteration:  3900charge 0 multiplicity 1
 C        -1.019410         2.320758        -0.012092
 C         0.231166         1.783908         0.592460
 O         0.362611         1.858441         2.029617
 C         1.558018         1.058290         1.851726
 C         2.610117         2.012717         1.182407
 C         1.575427         1.918438         0.068270
 O         1.727613         2.369337        -1.247746
 C         0.969157         0.567667         0.481351
 C         0.893007        -0.677145        -0.258444
 H        -1.871937         1.668775         0.297843
 H        -1.040191         3.321080         0.285489
 H        -0.599500         2.470299        -1.053828
 H         1.835103         0.415128         2.697016
 H         2.934425         2.933423         1.626143
 H         3.501590         1.406660         0.971142
 H         2.188944         1.728458        -1.870047
 H         0.115142        -1.334048         0.130738
 H         0.576552        -0.561471        -1.300291
 H         1.794339        -1.137164        -0.176339
