19
Iteration:  2999
 C        -0.974921         2.232951        -0.185510
 C         0.223985         1.788509         0.628253
 O         0.331517         1.916649         2.091763
 C         1.560459         1.097592         1.897265
 C         2.575726         2.031836         1.148712
 C         1.637733         1.900919         0.042204
 O         1.742115         2.506861        -1.205993
 C         1.055284         0.506344         0.531942
 C         0.817572        -0.805512        -0.267271
 H        -1.810945         1.736925         0.328251
 H        -1.293543         3.249726        -0.099229
 H        -0.891524         1.948471        -1.246844
 H         1.727045         0.565623         2.893904
 H         2.890785         3.059751         1.573740
 H         3.545707         1.422425         1.007278
 H         2.325323         1.978241        -1.766106
 H         0.064841        -1.401610         0.274176
 H         0.505640        -0.659525        -1.344894
 H         1.700811        -1.331369        -0.349869
