19
Iteration:  3267charge 0 multiplicity 1
 C        -0.965692         2.267516        -0.190591
 C         0.216483         1.817989         0.616212
 O         0.398120         1.951285         2.000094
 C         1.533377         1.048295         1.843065
 C         2.587139         1.977801         1.154575
 C         1.626068         1.887882         0.031287
 O         1.736212         2.568592        -1.148071
 C         0.982844         0.530195         0.407599
 C         0.833260        -0.886541        -0.092739
 H        -1.801900         1.588347        -0.105118
 H        -1.290463         3.239892         0.249341
 H        -0.809856         2.389622        -1.301249
 H         1.668505         0.586051         2.882041
 H         2.788828         2.963433         1.634901
 H         3.463792         1.331101         0.814206
 H         2.443153         2.146748        -1.646920
 H         0.285169        -1.447808         0.744455
 H         0.212572        -1.059356        -1.001158
 H         1.822231        -1.394225        -0.152399
