19
Iteration:  3671charge 0 multiplicity 1
 C        -1.065126         2.356111        -0.009107
 C         0.164781         1.802428         0.589101
 O         0.302198         1.926904         2.036690
 C         1.486469         1.019678         1.773274
 C         2.613908         1.907518         1.134550
 C         1.595585         1.960598        -0.010629
 O         1.801904         2.555584        -1.310709
 C         1.018591         0.553559         0.489703
 C         0.987732        -0.924076        -0.084697
 H        -2.043335         1.837476         0.141752
 H        -1.309251         3.146020         0.571796
 H        -0.998346         2.605510        -1.140463
 H         1.611149         0.544232         2.703495
 H         3.000941         2.793420         1.628362
 H         3.458961         1.187524         0.945218
 H         2.737386         2.251613        -1.480544
 H         0.428795        -1.591883         0.521818
 H         0.436105        -0.965641        -1.024351
 H         2.076959        -1.260366        -0.092236
