19
Iteration:  2358
 C        -1.139839         2.121394         0.044258
 C         0.252719         1.721366         0.553123
 O         0.350624         1.786428         1.993182
 C         1.571412         1.118688         1.866036
 C         2.460347         2.156244         1.211523
 C         1.646307         2.082345        -0.014326
 O         1.964403         2.452328        -1.291258
 C         1.179832         0.551899         0.432503
 C         0.721878        -0.729683        -0.210569
 H        -1.875398         1.613640         0.809399
 H        -1.268396         3.204154         0.166820
 H        -1.434957         1.763222        -1.028787
 H         1.760823         0.313832         2.769422
 H         2.455747         3.114285         1.786228
 H         3.468475         1.801625         1.180651
 H         2.567160         1.689529        -1.503667
 H        -0.224681        -0.998602         0.303880
 H         0.572265        -0.582950        -1.335643
 H         1.332487        -1.630149         0.004195
