19
Iteration:  3657charge 0 multiplicity 1
 C        -1.173412         2.423909        -0.062562
 C         0.148764         1.765990         0.492681
 O         0.416043         1.959639         1.935604
 C         1.534175         1.066077         1.911603
 C         2.637028         1.860737         1.273418
 C         1.626585         1.909226        -0.022397
 O         1.703105         2.529807        -1.239000
 C         0.989388         0.493677         0.408067
 C         1.002109        -0.875486        -0.068843
 H        -1.979699         1.759567         0.175205
 H        -1.200580         3.334630         0.501996
 H        -1.117893         2.691124        -1.127458
 H         1.733447         0.329423         2.708425
 H         2.974687         2.728270         1.814241
 H         3.495926         1.245636         0.973603
 H         2.549968         2.564811        -1.671489
 H         0.585508        -1.649118         0.707832
 H         0.540082        -0.964580        -1.112054
 H         2.023591        -1.224714        -0.322239
