19
Iteration:  3851charge 0 multiplicity 1
 C        -0.998683         2.487451         0.016648
 C         0.165353         1.771944         0.622352
 O         0.296674         1.775495         1.969281
 C         1.602683         1.021905         1.794069
 C         2.508612         2.039021         1.134966
 C         1.587513         1.929006         0.023392
 O         1.877665         2.339307        -1.248610
 C         1.000849         0.583507         0.424987
 C         0.933510        -0.821773        -0.103446
 H        -1.784778         1.928331         0.462314
 H        -0.914042         3.552405         0.480651
 H        -0.960133         2.626614        -1.036190
 H         1.925326         0.406086         2.649946
 H         2.469141         3.067857         1.653337
 H         3.565217         1.784919         0.926188
 H         1.054006         2.606672        -1.653323
 H         0.396819        -1.619170         0.481662
 H         0.474348        -0.791101        -1.128013
 H         2.083632        -1.173115        -0.344151
