19
Iteration:  1861charge 0 multiplicity 1
 C        -1.052573         2.292118        -0.133112
 C         0.166608         1.702326         0.519184
 O         0.383059         2.011361         1.972759
 C         1.506419         1.109402         1.825938
 C         2.696474         1.918802         1.189583
 C         1.698954         1.894032        -0.011199
 O         1.703536         2.572763        -1.195880
 C         1.002199         0.462368         0.519178
 C         0.834751        -0.882888        -0.035848
 H        -1.880560         1.657808        -0.067155
 H        -1.294286         3.220015         0.357464
 H        -0.874222         2.587924        -1.281082
 H         1.597336         0.633413         2.841163
 H         2.777851         2.975887         1.536809
 H         3.733335         1.359474         1.090564
 H         2.457733         2.271350        -1.771727
 H         0.121157        -1.513410         0.508329
 H         0.508269        -0.813431        -1.022201
 H         1.924214        -1.303661        -0.124322
