19
Iteration:  2404charge 0 multiplicity 1
 C        -0.940132         2.132390        -0.177196
 C         0.208417         1.807969         0.650857
 O         0.378999         1.921717         2.132306
 C         1.481087         1.015300         1.926868
 C         2.562479         2.033409         1.196135
 C         1.618148         1.943145         0.029015
 O         1.651050         2.448261        -1.311073
 C         1.071673         0.552235         0.497058
 C         0.880043        -0.721734        -0.221839
 H        -1.860531         1.599224         0.141082
 H        -1.136316         3.234436        -0.123743
 H        -0.669707         1.829530        -1.294143
 H         1.863180         0.488733         2.851585
 H         3.002888         2.991584         1.524912
 H         3.385642         1.389740         0.862818
 H         2.540815         2.834490        -1.463129
 H         0.058105        -1.391951         0.129875
 H         0.721251        -0.336645        -1.332784
 H         1.718932        -1.340815        -0.256444
