19
Iteration:  2068charge 0 multiplicity 1
 C        -1.082059         2.407229        -0.035826
 C         0.179701         1.707210         0.579312
 O         0.320609         1.813086         1.985854
 C         1.576229         1.087231         1.862505
 C         2.478789         2.129369         1.210675
 C         1.614991         1.928640        -0.039201
 O         1.834109         2.433106        -1.311381
 C         1.139540         0.501951         0.442711
 C         0.877711        -0.845964        -0.077423
 H        -1.880990         1.725588         0.096029
 H        -1.325842         3.289061         0.541300
 H        -0.926125         2.603854        -1.186118
 H         1.828842         0.555747         2.847713
 H         2.692910         3.074892         1.640768
 H         3.403244         1.693204         0.856496
 H         2.719817         2.070823        -1.547566
 H         0.366951        -1.299538         0.771489
 H         0.137507        -0.807212        -0.791913
 H         1.782640        -1.465752        -0.357378
