19
Iteration:  2081
 C        -1.010317         2.293951        -0.023143
 C         0.217595         1.821447         0.560295
 O         0.219048         1.736505         2.073097
 C         1.583678         1.056504         1.840059
 C         2.522452         2.135498         1.179523
 C         1.647153         1.921597        -0.043888
 O         1.820180         2.369298        -1.367839
 C         1.167355         0.609245         0.416177
 C         0.796007        -0.763956        -0.019399
 H        -1.930650         1.754100         0.064421
 H        -1.134004         3.360169         0.432033
 H        -0.858810         2.537520        -1.059434
 H         1.926060         0.395139         2.551975
 H         2.318837         3.055206         1.635926
 H         3.584900         1.845495         1.332838
 H         2.739183         2.320435        -1.655479
 H         0.404796        -1.399892         0.760230
 H         0.178407        -0.743341        -0.840596
 H         1.746865        -1.345876        -0.444968
