19
Iteration:  4675
 C        -1.023556         2.267514         0.081445
 C         0.181177         1.763402         0.635397
 O         0.335993         1.777257         2.119954
 C         1.622055         1.008252         1.828371
 C         2.557215         2.088180         1.204649
 C         1.648262         1.996830        -0.051380
 O         1.961768         2.348272        -1.422503
 C         1.028789         0.618097         0.437909
 C         0.616995        -0.732481        -0.215274
 H        -1.932504         1.662181         0.419781
 H        -0.912667         3.426917         0.240488
 H        -0.913043         2.047964        -1.027003
 H         2.112986         0.412849         2.554080
 H         2.705546         2.970624         1.943415
 H         3.532090         1.572485         1.112866
 H         2.285613         3.245413        -1.341871
 H        -0.076785        -1.311844         0.515854
 H         0.095746        -0.508652        -1.161483
 H         1.466055        -1.283607        -0.492202
