19
Iteration:  3007charge 0 multiplicity 1
 C        -0.918938         2.226938        -0.153226
 C         0.271225         1.800019         0.630003
 O         0.313231         1.848374         2.017328
 C         1.523339         1.124489         1.944111
 C         2.588415         2.035663         1.162572
 C         1.589188         1.906836         0.031010
 O         1.722708         2.476023        -1.181317
 C         1.047767         0.533347         0.452229
 C         0.813869        -0.764221        -0.212365
 H        -1.756015         1.703858         0.260136
 H        -0.979984         3.291239        -0.020708
 H        -0.923554         2.014655        -1.258684
 H         2.054790         0.385447         2.703793
 H         2.619574         3.112316         1.466874
 H         3.472455         1.534834         0.750436
 H         2.532814         2.149697        -1.617752
 H         0.123974        -1.309164         0.462468
 H         0.320701        -0.598866        -1.109616
 H         1.670969        -1.458034        -0.276652
