19
Iteration:  4330
 C        -1.110503         2.379410         0.072861
 C         0.109531         1.895219         0.621314
 O         0.471917         1.981823         2.057558
 C         1.566823         1.065577         1.917330
 C         2.609314         1.842114         1.184501
 C         1.630864         1.841874        -0.006277
 O         1.867632         2.204549        -1.267349
 C         0.919396         0.613247         0.443848
 C         0.907280        -0.680101        -0.364397
 H        -1.930390         1.584283         0.282666
 H        -1.537269         3.382566         0.303814
 H        -0.947774         2.340321        -1.083813
 H         1.778217         0.642746         2.850241
 H         3.053510         2.736808         1.685693
 H         3.457426         1.170371         0.834767
 H         1.165561         2.820766        -1.431623
 H         0.109353        -1.296091         0.097810
 H         0.667927        -0.410859        -1.435771
 H         1.862095        -1.077308        -0.193372
