19
Iteration:  3112
 C        -1.029171         2.160620        -0.036929
 C         0.242673         1.890652         0.613529
 O         0.325729         2.031817         2.026730
 C         1.464366         1.038113         1.853681
 C         2.645375         1.930717         1.235425
 C         1.614123         1.876095        -0.019397
 O         1.777002         2.447240        -1.240760
 C         0.989237         0.562251         0.442352
 C         0.918521        -0.748755        -0.202581
 H        -1.786291         1.446947         0.312529
 H        -1.539913         3.150644         0.266031
 H        -0.876686         2.162342        -1.131442
 H         1.601203         0.458536         2.782422
 H         2.941225         2.845266         1.786742
 H         3.672177         1.538588         1.042127
 H         2.174608         1.873509        -1.941778
 H         0.137574        -1.395793         0.161734
 H         0.726646        -0.679248        -1.323424
 H         1.856004        -1.202119        -0.178633
