19
Iteration:   785
 C        -1.053431         2.173768        -0.152596
 C         0.204339         1.812554         0.609338
 O         0.342340         2.008695         1.987670
 C         1.519165         1.073395         1.918444
 C         2.625533         1.949552         1.225259
 C         1.703485         1.854247         0.049626
 O         1.675608         2.428576        -1.271180
 C         1.041523         0.548859         0.601216
 C         0.914230        -0.674436        -0.229350
 H        -1.842354         1.355342        -0.025486
 H        -1.487342         3.113721         0.165837
 H        -0.785357         2.093398        -1.191824
 H         1.814252         0.544243         2.780725
 H         2.634747         2.957141         1.695747
 H         3.564173         1.420939         1.020327
 H         2.335115         1.902977        -1.824986
 H         0.491060        -1.617845         0.091673
 H         0.150733        -0.302697        -1.020503
 H         2.069878        -0.941834        -0.431194
