19
Iteration:   903charge 0 multiplicity 1
 C        -1.004762         2.254261        -0.162470
 C         0.137412         1.817918         0.700655
 O         0.313307         1.919375         2.116395
 C         1.536113         1.097196         1.896320
 C         2.629068         1.934827         1.244889
 C         1.595769         1.886747        -0.041159
 O         1.690755         2.532332        -1.340142
 C         1.085310         0.551225         0.457706
 C         0.954207        -0.802078        -0.138875
 H        -1.950090         1.630584         0.103839
 H        -1.075260         3.381548        -0.082832
 H        -0.710426         1.937488        -1.265331
 H         1.662708         0.393055         2.658168
 H         2.890067         2.898902         1.617041
 H         3.491693         1.284311         0.864177
 H         2.527074         2.353350        -1.873638
 H         0.043397        -1.298640         0.299500
 H         0.808235        -0.914082        -1.319096
 H         1.736845        -1.395978         0.082859
