19
Iteration:  2521charge 0 multiplicity 1
 C        -1.045698         2.228884         0.035558
 C         0.220283         1.736135         0.616042
 O         0.339960         1.911222         2.042487
 C         1.529031         1.135920         1.952302
 C         2.498291         2.090142         1.249044
 C         1.591955         1.950150         0.022646
 O         1.842932         2.435806        -1.352462
 C         1.062433         0.508659         0.405998
 C         0.903337        -0.818577        -0.314661
 H        -1.883257         1.552817         0.385053
 H        -1.223472         3.200692         0.419535
 H        -1.189006         2.335204        -1.099011
 H         1.721435         0.725805         3.098210
 H         2.612110         3.140818         1.718113
 H         3.531410         1.692602         1.151828
 H         2.487364         1.776673        -1.613310
 H         0.121154        -1.465625         0.073071
 H         0.660296        -0.533317        -1.327951
 H         1.814813        -1.580455        -0.469663
