19
Iteration:  3463
 C        -0.937822         2.462002        -0.051778
 C         0.260202         1.658133         0.483569
 O         0.257228         1.818254         2.037403
 C         1.553094         1.073883         1.856375
 C         2.546670         2.115308         1.261207
 C         1.637802         1.949352         0.000295
 O         1.643134         2.462543        -1.283712
 C         1.236337         0.504696         0.432386
 C         0.821553        -0.893971        -0.117721
 H        -1.966895         2.142647         0.140605
 H        -0.961381         3.478371         0.443628
 H        -0.847570         2.493236        -1.181887
 H         1.852734         0.487727         2.728451
 H         2.881802         3.006495         1.780331
 H         3.573720         1.757684         1.000720
 H         2.265404         1.955783        -1.823485
 H         0.249172        -1.278826         0.670794
 H         0.136230        -0.932181        -0.990648
 H         1.685969        -1.668322        -0.220650
