19
Iteration:  3214charge 0 multiplicity 1
 C        -1.123956         2.400910        -0.018001
 C         0.239145         1.828851         0.549146
 O         0.351587         1.877500         2.004924
 C         1.481171         1.100972         1.800682
 C         2.571065         1.988634         1.201519
 C         1.623103         1.933549         0.006704
 O         1.816257         2.428003        -1.200035
 C         1.045528         0.564577         0.375766
 C         0.943090        -0.882817        -0.115757
 H        -1.982412         1.807542         0.448019
 H        -1.236664         3.529578         0.020476
 H        -1.183102         2.134332        -1.138802
 H         1.531166         0.402426         2.675957
 H         2.764252         2.920188         1.733026
 H         3.416071         1.343799         0.952564
 H         2.515926         1.912949        -1.609533
 H         0.469598        -1.455473         0.688001
 H         0.501753        -0.995683        -1.043347
 H         1.862589        -1.327022        -0.225322
