19
Iteration:   734charge 0 multiplicity 1
 C        -1.104262         2.323061        -0.108952
 C         0.182791         1.780905         0.566427
 O         0.360169         1.796158         2.043980
 C         1.582688         1.054231         1.827050
 C         2.520886         2.085500         1.232023
 C         1.585282         1.945552        -0.020381
 O         1.813180         2.395922        -1.314182
 C         1.059729         0.605088         0.479227
 C         0.933297        -0.783236        -0.079485
 H        -2.043903         1.791698         0.222577
 H        -1.214777         3.307778         0.395371
 H        -0.944405         2.347281        -1.179577
 H         1.847919         0.215191         2.668464
 H         2.421856         3.142212         1.698590
 H         3.600430         1.781118         1.082864
 H         2.656620         2.030384        -1.682511
 H         0.008202        -1.173402         0.346067
 H         0.680142        -0.827033        -1.108321
 H         1.782993        -1.452859         0.107317
