19
Iteration:  2328charge 0 multiplicity 1
 C        -1.197131         2.110228         0.092354
 C         0.190638         1.781593         0.521887
 O         0.351650         1.943189         2.007233
 C         1.481848         1.127593         1.876963
 C         2.545648         2.049570         1.156094
 C         1.733584         1.880548        -0.045042
 O         2.012586         2.577192        -1.232320
 C         1.042679         0.530553         0.479293
 C         0.841299        -0.805036        -0.205793
 H        -1.914801         1.419560         0.542384
 H        -1.575515         3.058393         0.441301
 H        -1.429268         2.002726        -1.044376
 H         1.727194         0.439993         2.710827
 H         2.538487         3.130941         1.499618
 H         3.563628         1.582263         1.167893
 H         2.055626         1.899716        -1.915524
 H         0.086471        -1.455650         0.311175
 H         0.483293        -0.708318        -1.349878
 H         1.681857        -1.414082        -0.288570
