19
Iteration:  3991
 C        -1.021260         2.249810         0.089131
 C         0.214226         1.738149         0.589716
 O         0.370220         1.845337         2.068954
 C         1.479522         1.005922         1.862668
 C         2.556896         2.006303         1.184597
 C         1.690979         1.949352        -0.031652
 O         1.984498         2.491217        -1.327014
 C         1.088971         0.640462         0.429399
 C         0.665027        -0.756076        -0.207787
 H        -1.891410         1.825157         0.624666
 H        -1.077173         3.373214        -0.038428
 H        -1.153432         2.009434        -0.942877
 H         1.911038         0.404520         2.716262
 H         2.690267         3.002699         1.590543
 H         3.512459         1.569278         1.039250
 H         1.206543         2.107992        -1.793977
 H         0.027187        -1.350678         0.403149
 H         0.187149        -0.705420        -1.198232
 H         1.528864        -1.255841        -0.282518
