19
Iteration:  2563charge 0 multiplicity 1
 C        -0.999549         2.046989        -0.201485
 C         0.231600         1.866046         0.623449
 O         0.341352         1.924026         2.131312
 C         1.552373         1.052167         1.982503
 C         2.618733         1.898148         1.176452
 C         1.629868         2.042632         0.020386
 O         1.661017         2.445250        -1.295861
 C         1.011083         0.616327         0.573933
 C         0.863606        -0.639927        -0.297198
 H        -1.843791         1.400739         0.158483
 H        -1.415111         3.012706        -0.304207
 H        -0.617892         1.694438        -1.168589
 H         1.955122         0.358607         2.810104
 H         3.031396         2.863991         1.714153
 H         3.495128         1.246277         0.823735
 H         2.532590         2.392868        -1.758412
 H         0.086428        -1.269101         0.128972
 H         0.767064        -0.477897        -1.316468
 H         1.762868        -1.339120        -0.001075
