19
Iteration:  3739
 C        -0.987466         2.098925        -0.000559
 C         0.324337         1.807017         0.567102
 O         0.362388         1.865725         2.014441
 C         1.499246         1.133482         1.915879
 C         2.511785         2.055639         1.229986
 C         1.706911         1.925790         0.067658
 O         1.746501         2.369820        -1.282990
 C         1.153717         0.571828         0.452099
 C         0.724927        -0.604457        -0.306728
 H        -1.821022         1.522824         0.479262
 H        -1.332350         3.117237         0.065257
 H        -0.954224         1.956887        -1.082932
 H         1.964288         0.636652         2.783727
 H         2.530351         3.005320         1.857766
 H         3.491852         1.577557         1.169763
 H         2.315192         1.741986        -1.788518
 H        -0.181118        -0.956151         0.128153
 H         0.278020        -0.407729        -1.260984
 H         1.465227        -1.449514        -0.178756
