19
Iteration:  4011
 C        -0.965022         2.369121        -0.026457
 C         0.238296         1.890245         0.640192
 O         0.310634         1.787415         2.069594
 C         1.608262         1.001275         1.791526
 C         2.604264         2.003144         1.187152
 C         1.604796         1.867134        -0.089062
 O         1.854760         2.505908        -1.218575
 C         1.085861         0.595193         0.438795
 C         0.716731        -0.831245        -0.155465
 H        -1.874425         1.876608         0.502049
 H        -1.244901         3.384290        -0.086067
 H        -1.200559         2.020101        -0.988386
 H         1.830837         0.478994         2.779170
 H         2.672413         2.924535         1.730075
 H         3.569236         1.636179         0.990851
 H         1.721140         2.020746        -2.025246
 H         0.091482        -1.326357         0.607268
 H         0.244480        -0.598189        -1.141101
 H         1.529443        -1.476564        -0.440369
