19
Iteration:  3038
 C        -1.051037         2.342137        -0.146381
 C         0.200926         1.785872         0.508184
 O         0.340302         1.742604         2.108019
 C         1.575924         1.039336         1.873498
 C         2.529209         2.093009         1.314349
 C         1.681581         1.968401         0.012402
 O         1.803111         2.499906        -1.422810
 C         1.125111         0.561786         0.402225
 C         0.764376        -0.885472        -0.031644
 H        -1.964262         1.831053         0.203164
 H        -1.102311         3.444874         0.210044
 H        -1.017804         2.336847        -1.292107
 H         1.998105         0.145673         2.546779
 H         2.578342         3.044917         1.835579
 H         3.595132         1.923158         1.228944
 H         2.720679         2.831286        -1.489540
 H         0.130373        -1.383243         0.760574
 H        -0.064626        -0.830869        -0.752154
 H         1.613974        -1.718325        -0.430273
