19
Iteration:  4590charge 0 multiplicity 1
 C        -1.051530         2.417616         0.011837
 C         0.197775         1.880376         0.642344
 O         0.370048         1.885236         2.038024
 C         1.534940         1.024530         1.831737
 C         2.749721         1.902423         1.075674
 C         1.597911         1.941209         0.066261
 O         1.826568         2.348729        -1.217729
 C         0.934212         0.538222         0.461192
 C         0.855729        -0.769071        -0.239246
 H        -1.956735         1.836457         0.328339
 H        -1.291313         3.479867         0.021963
 H        -0.924742         2.303824        -1.021132
 H         1.790928         0.341955         2.572044
 H         2.965220         2.817198         1.574835
 H         3.538749         1.182108         0.895254
 H         1.134101         2.991167        -1.525549
 H         0.141244        -1.519322         0.093817
 H         0.468905        -0.793254        -1.249160
 H         1.864117        -1.239306        -0.026621
