19
Iteration:  2049charge 0 multiplicity 1
 C        -1.078514         2.305776        -0.028237
 C         0.164662         1.761034         0.534897
 O         0.340404         2.018236         1.937809
 C         1.537975         1.094730         1.881869
 C         2.594446         2.006077         1.145834
 C         1.567416         1.942786        -0.001882
 O         1.824564         2.530135        -1.221843
 C         0.994064         0.464103         0.511019
 C         0.932810        -0.979333        -0.107979
 H        -2.004236         1.751009         0.054048
 H        -1.221347         3.282517         0.617514
 H        -0.938948         2.676334        -0.993594
 H         1.945543         0.552946         2.622067
 H         2.685472         2.940854         1.675145
 H         3.569495         1.492878         0.884702
 H         2.414556         1.835387        -1.631080
 H         0.417517        -1.774137         0.448638
 H         0.550850        -0.992699        -1.127092
 H         2.075824        -1.302035        -0.251968
