19
Iteration:  2338charge 0 multiplicity 1
 C        -1.189704         2.094864         0.126387
 C         0.232761         1.757656         0.590190
 O         0.280148         1.934695         1.938287
 C         1.563430         1.079434         1.896222
 C         2.510530         2.150292         1.213546
 C         1.701800         1.844786        -0.097618
 O         2.022136         2.543758        -1.250982
 C         1.090774         0.534405         0.429687
 C         0.795182        -0.802795        -0.203739
 H        -1.823133         1.445488         0.795127
 H        -1.267815         3.140852         0.409796
 H        -1.447430         1.995979        -1.023398
 H         1.569503         0.424313         2.849440
 H         2.610508         3.149277         1.733975
 H         3.528632         1.723815         1.101957
 H         2.259237         2.117975        -2.091123
 H        -0.123304        -1.262122         0.262013
 H         0.494109        -0.467625        -1.324951
 H         1.611104        -1.451360        -0.187760
