19
Iteration:  2826charge 0 multiplicity 1
 C        -1.098280         2.155912        -0.182007
 C         0.175530         1.842380         0.665655
 O         0.370918         1.926559         2.080505
 C         1.537142         1.043878         1.878844
 C         2.595157         1.936615         1.175908
 C         1.672969         1.926476        -0.084040
 O         1.800974         2.632996        -1.182114
 C         1.035115         0.526569         0.433150
 C         0.845191        -0.837067        -0.105476
 H        -2.015110         1.522788        -0.034339
 H        -1.311984         3.217511        -0.198638
 H        -0.892724         2.047291        -1.311725
 H         1.617401         0.326891         2.674144
 H         2.811426         2.872810         1.620372
 H         3.551283         1.463433         0.992416
 H         2.591416         2.465500        -1.747358
 H         0.281756        -1.556938         0.526339
 H         0.287605        -0.713668        -1.050425
 H         1.868359        -1.355185        -0.239144
