19
Iteration:  4464
 C        -1.033850         2.304152         0.062255
 C         0.222310         1.821103         0.563120
 O         0.461110         1.977628         1.992736
 C         1.559724         1.008076         1.923782
 C         2.644939         1.816103         1.188902
 C         1.583497         1.892483        -0.029136
 O         1.853256         2.457576        -1.268893
 C         1.000102         0.585522         0.486329
 C         0.733434        -0.720353        -0.237986
 H        -1.784550         1.522718         0.109125
 H        -1.427661         3.330218         0.072518
 H        -0.920668         2.171424        -1.099028
 H         1.556432         0.450829         2.931097
 H         2.987763         2.710997         1.757836
 H         3.511007         1.162286         0.861493
 H         1.199455         3.087610        -1.574482
 H         0.319825        -1.361805         0.551789
 H         0.158718        -0.897459        -1.159076
 H         1.555148        -1.250979        -0.537031
