19
Iteration:   515
 C        -1.027112         2.269888        -0.050215
 C         0.173865         1.792608         0.579602
 O         0.367971         2.021381         1.952182
 C         1.515051         1.025401         1.875719
 C         2.548108         1.944783         1.200288
 C         1.591257         1.856823         0.005695
 O         1.727869         2.476567        -1.239348
 C         0.968213         0.536763         0.507296
 C         1.005835        -0.781410        -0.134164
 H        -1.905858         1.574053         0.088393
 H        -1.038133         3.348983         0.128483
 H        -0.853012         2.324778        -1.133661
 H         1.800225         0.432002         2.861576
 H         2.842701         2.887200         1.563198
 H         3.438413         1.392853         0.971998
 H         2.480804         2.126649        -1.698221
 H         0.001661        -1.479975         0.081532
 H         1.122343        -0.764785        -1.208058
 H         1.959802        -1.170331         0.112540
