19
Iteration:  1125
 C        -1.045510         2.310228         0.065600
 C         0.181765         1.764845         0.535115
 O         0.274403         1.826608         2.019539
 C         1.531348         1.049531         1.854139
 C         2.533624         2.171166         1.189126
 C         1.643802         2.013508        -0.004327
 O         1.933521         2.433630        -1.321666
 C         1.037820         0.566279         0.438247
 C         0.826772        -0.912172        -0.139183
 H        -1.908954         1.735297         0.537772
 H        -1.137987         3.404468         0.122623
 H        -0.882996         2.057563        -0.957466
 H         1.934411         0.534253         2.706220
 H         2.544974         3.175885         1.683786
 H         3.568107         1.848809         1.136978
 H         2.525493         1.725999        -1.714746
 H         0.126584        -1.403954         0.609378
 H         0.433607        -0.838605        -1.286311
 H         1.648193        -1.590651        -0.290749
