19
Iteration:  3723charge 0 multiplicity 1
 C        -1.030009         2.192872        -0.044223
 C         0.207807         1.781486         0.590975
 O         0.331897         1.889221         2.019985
 C         1.646317         1.019056         1.918030
 C         2.593718         2.124418         1.366284
 C         1.591923         2.003293        -0.013676
 O         1.813897         2.392747        -1.323327
 C         1.203114         0.589779         0.418343
 C         0.697662        -0.759590        -0.246803
 H        -1.930502         1.653809         0.328344
 H        -1.358265         3.242446         0.317333
 H        -1.026358         2.013452        -1.163873
 H         1.693621         0.393904         2.821082
 H         2.686038         3.064116         1.853856
 H         3.605620         1.779515         1.070522
 H         2.026280         1.564858        -1.844628
 H        -0.273170        -1.165597         0.283162
 H         0.526461        -0.521727        -1.369775
 H         1.493881        -1.576809        -0.327612
