19
Iteration:   999charge 0 multiplicity 1
 C        -1.309011         2.313978         0.048777
 C         0.094096         1.775962         0.588040
 O         0.316234         1.848110         2.074707
 C         1.546678         1.123051         1.859967
 C         2.534403         2.079787         1.243890
 C         1.714424         1.893772        -0.053388
 O         1.955856         2.285634        -1.346585
 C         1.156529         0.605036         0.441029
 C         0.932631        -0.670980        -0.220021
 H        -2.001353         1.690451         0.396062
 H        -1.458500         3.344768         0.250463
 H        -1.206459         2.152892        -1.069196
 H         1.672241         0.361306         2.587622
 H         2.491055         2.981472         1.874618
 H         3.554654         1.654877         1.106493
 H         2.833153         1.851450        -1.576429
 H         0.348257        -1.229791         0.555242
 H         0.253342        -0.567298        -1.064183
 H         1.821631        -1.456656        -0.630827
