19
Iteration:  4461charge 0 multiplicity 1
 C        -1.023602         2.304119         0.047415
 C         0.230685         1.800077         0.555380
 O         0.447437         1.980991         1.989868
 C         1.548490         0.985985         1.907180
 C         2.647445         1.825710         1.176326
 C         1.608503         1.891166        -0.017013
 O         1.858744         2.471635        -1.275049
 C         0.984134         0.550804         0.509675
 C         0.728872        -0.705894        -0.197269
 H        -1.913252         1.602287         0.099886
 H        -1.416698         3.307885         0.139246
 H        -0.989495         2.169314        -1.104957
 H         1.656128         0.436992         2.805796
 H         2.961722         2.730563         1.726742
 H         3.554423         1.225515         0.816782
 H         1.174320         3.113124        -1.520658
 H         0.322911        -1.296221         0.549212
 H         0.168270        -0.761153        -1.143155
 H         1.595841        -1.222193        -0.602504
