19
Iteration:   451charge 0 multiplicity 1
 C        -1.029572         2.280993        -0.060854
 C         0.258042         1.880533         0.582490
 O         0.286343         1.822481         2.018432
 C         1.552287         1.033121         1.839006
 C         2.508531         2.146215         1.301318
 C         1.665528         1.971202         0.013113
 O         1.764702         2.308339        -1.317048
 C         1.194507         0.557536         0.448561
 C         0.822314        -0.771944        -0.150211
 H        -1.983909         1.899893         0.448697
 H        -1.150571         3.397485        -0.114447
 H        -1.198492         1.995709        -1.104580
 H         1.840772         0.338493         2.741769
 H         2.498503         3.216349         1.699669
 H         3.507232         1.686186         1.031778
 H         2.547684         1.835147        -1.638772
 H         0.132904        -1.251399         0.540911
 H         0.241257        -0.647167        -1.050309
 H         1.784048        -1.367304        -0.476523
