19
Iteration:   140
 C        -1.088494         2.215608        -0.109736
 C         0.190850         1.797677         0.616215
 O         0.386873         1.912586         2.053227
 C         1.580423         1.126421         1.884018
 C         2.577359         2.025368         1.165355
 C         1.542152         1.895951        -0.019507
 O         1.866454         2.515816        -1.270492
 C         1.032246         0.511583         0.416484
 C         0.803357        -0.823731        -0.104195
 H        -1.969177         1.646654         0.288985
 H        -1.324773         3.287146         0.165558
 H        -0.918081         2.152741        -1.167260
 H         1.949167         0.556610         2.863205
 H         2.816002         3.066350         1.569917
 H         3.565303         1.556872         0.857844
 H         2.571402         2.026383        -1.718757
 H        -0.095458        -1.205664         0.340519
 H         0.787355        -1.003079        -1.213601
 H         1.603747        -1.548183         0.287466
