19
Iteration:  1778
 C        -1.016290         2.176569         0.012462
 C         0.257321         1.851663         0.552756
 O         0.293573         2.008126         2.043339
 C         1.527999         1.071113         1.905613
 C         2.540244         2.038495         1.228211
 C         1.602919         1.906220        -0.014187
 O         1.900624         2.332832        -1.323635
 C         1.018953         0.546346         0.547771
 C         0.853114        -0.718041        -0.237694
 H        -1.842044         1.570450         0.539193
 H        -1.130362         3.267608         0.362785
 H        -1.213879         2.084060        -1.043260
 H         1.696805         0.457687         2.763601
 H         2.838048         3.053776         1.496863
 H         3.357304         1.507010         0.872068
 H         2.113986         1.622211        -1.910678
 H         0.077695        -1.415581         0.137274
 H         0.592919        -0.372266        -1.369242
 H         1.689459        -1.322593        -0.317506
