19
Iteration:   636
 C        -1.020472         2.151668        -0.223016
 C         0.216159         1.834460         0.617796
 O         0.373598         1.923426         2.071333
 C         1.565584         1.055222         1.944049
 C         2.602309         1.949369         1.299239
 C         1.573515         1.940398         0.015075
 O         1.673771         2.408021        -1.372718
 C         1.076606         0.606802         0.512949
 C         0.901850        -0.667528        -0.176101
 H        -1.950671         1.534533         0.110825
 H        -1.232505         3.265515        -0.210058
 H        -0.716299         1.828848        -1.205279
 H         1.841697         0.472102         3.031459
 H         2.833582         2.891069         1.786931
 H         3.484947         1.316737         1.204228
 H         2.607918         2.200074        -1.650202
 H         0.103332        -1.311595         0.480685
 H         0.221840        -0.462059        -0.984077
 H         1.752288        -1.108358        -0.639780
