19
Iteration:  3597charge 0 multiplicity 1
 C        -1.093674         2.323104        -0.124446
 C         0.148711         1.750170         0.657124
 O         0.352139         1.750966         2.108117
 C         1.626651         1.068885         1.874576
 C         2.524714         2.108147         1.165754
 C         1.587254         1.906608         0.013819
 O         1.836390         2.330057        -1.246873
 C         1.130070         0.648454         0.454312
 C         0.859174        -0.666269        -0.193258
 H        -2.165757         2.088883         0.139296
 H        -0.935803         3.568352        -0.070526
 H        -0.903712         1.992515        -1.235409
 H         1.881409         0.345788         2.651455
 H         2.618172         3.118159         1.657755
 H         3.487455         1.637470         0.847608
 H         2.203453         1.533540        -1.690524
 H         0.012371        -1.261977         0.237479
 H         0.338317        -0.328510        -1.080627
 H         1.750202        -1.294239        -0.419865
