19
Iteration:  3935
 C        -1.095389         2.173355         0.070500
 C         0.156692         1.903573         0.649237
 O         0.376632         1.979777         2.094836
 C         1.539057         1.056788         1.913721
 C         2.609870         1.882782         1.269579
 C         1.636606         1.979928        -0.042118
 O         1.869785         2.334944        -1.433447
 C         1.013288         0.596018         0.476748
 C         0.821505        -0.737878        -0.330324
 H        -1.971906         1.523757         0.332331
 H        -1.400436         3.173470         0.283438
 H        -0.980750         1.991175        -0.972926
 H         1.860156         0.353466         2.731807
 H         2.883905         2.810447         1.731302
 H         3.440426         1.276867         1.040496
 H         2.467137         3.117137        -1.254733
 H         0.065773        -1.322163         0.130976
 H         0.587493        -0.528537        -1.366322
 H         1.622201        -1.314682        -0.347504
