19
Iteration:  2712charge 0 multiplicity 1
 C        -1.042500         2.248318        -0.112364
 C         0.191165         1.772377         0.552590
 O         0.323404         1.953338         2.046724
 C         1.518715         1.115890         1.976972
 C         2.608127         1.940620         1.224208
 C         1.635268         1.832449         0.021026
 O         1.667136         2.457240        -1.249091
 C         1.026877         0.510838         0.584330
 C         1.053536        -0.690681        -0.290619
 H        -1.772791         1.461038         0.067734
 H        -1.281516         3.313267         0.211421
 H        -0.912185         2.367961        -1.156550
 H         1.473718         0.515182         2.892873
 H         2.854027         2.928483         1.473791
 H         3.525902         1.423141         1.061314
 H         2.069560         1.856698        -1.938029
 H         0.231305        -1.409055         0.007606
 H         0.785681        -0.308362        -1.414447
 H         1.973174        -1.102400        -0.449395
