19
Iteration:  1619charge 0 multiplicity 1
 C        -1.083786         2.212331        -0.070707
 C         0.210652         1.878141         0.598358
 O         0.365056         2.021526         1.990907
 C         1.550795         1.039462         1.867266
 C         2.584439         1.928453         1.104030
 C         1.580397         1.906819         0.010742
 O         1.813307         2.421366        -1.237662
 C         0.948436         0.537600         0.498961
 C         0.894286        -0.760748        -0.122576
 H        -1.919939         1.497348         0.058494
 H        -1.421637         3.060588         0.475812
 H        -0.809766         2.588680        -1.167918
 H         1.798164         0.575019         2.806915
 H         2.990113         2.857505         1.566927
 H         3.503125         1.272576         0.916980
 H         2.696654         2.166591        -1.512169
 H         0.130553        -1.507935         0.179257
 H         0.792448        -0.757550        -1.181244
 H         1.851751        -1.365750         0.152794
