19
Iteration:  2591
 C        -1.041185         2.107806        -0.112715
 C         0.175829         1.775036         0.626209
 O         0.357937         1.886259         2.069534
 C         1.553328         1.067479         1.871076
 C         2.593096         2.004422         1.162479
 C         1.620554         1.994972         0.009646
 O         1.785836         2.509336        -1.225023
 C         1.032962         0.613032         0.474966
 C         0.867414        -0.728408        -0.180136
 H        -1.925997         1.593058         0.255494
 H        -1.236839         3.236989        -0.266053
 H        -0.833036         1.730376        -1.121905
 H         1.851984         0.332066         2.513862
 H         2.752031         2.898351         1.675889
 H         3.536478         1.576130         0.944955
 H         2.377047         1.972028        -1.794234
 H         0.063400        -1.209002         0.431830
 H         0.555023        -0.683338        -1.319136
 H         1.628873        -1.408431        -0.061881
