19
Iteration:  1603charge 0 multiplicity 1
 C        -1.096966         2.191175        -0.003683
 C         0.172409         1.767195         0.563635
 O         0.406840         2.117301         2.057219
 C         1.436447         1.124125         1.905885
 C         2.552530         1.841140         1.179842
 C         1.625432         1.862665        -0.027792
 O         1.870682         2.487030        -1.363819
 C         1.025392         0.539585         0.555400
 C         0.913595        -0.791578        -0.185298
 H        -1.810178         1.259718         0.087125
 H        -1.500441         3.128285         0.550063
 H        -1.068831         2.345493        -0.994483
 H         1.587978         0.449113         2.853895
 H         2.842977         2.856031         1.566742
 H         3.365841         1.248547         0.866765
 H         2.750315         2.065670        -1.600071
 H         0.016923        -1.312801         0.127551
 H         0.682299        -0.425269        -1.262915
 H         1.842421        -1.314701        -0.163285
