19
Iteration:  1677
 C        -0.948345         2.441621        -0.070054
 C         0.242476         1.766351         0.589119
 O         0.331006         1.816064         1.993663
 C         1.571912         1.084875         1.893299
 C         2.509195         2.228701         1.187906
 C         1.651363         1.841890         0.003040
 O         1.720861         2.412369        -1.271729
 C         1.126299         0.491149         0.453819
 C         0.793783        -0.894910        -0.118765
 H        -1.837755         2.030877         0.251955
 H        -0.793215         3.510411         0.162781
 H        -0.961857         2.304660        -1.222157
 H         1.821393         0.482252         2.826662
 H         2.469447         3.228493         1.593092
 H         3.484511         1.738437         1.219054
 H         2.214553         1.701050        -1.748130
 H         0.092760        -1.466795         0.540662
 H         0.312631        -0.907206        -1.183550
 H         1.701311        -1.424109        -0.270596
