19
Iteration:  3774
 C        -1.128983         2.088136        -0.089162
 C         0.146550         1.792236         0.645296
 O         0.421921         1.945980         2.108662
 C         1.600727         1.097825         1.933389
 C         2.598108         1.944485         1.182681
 C         1.581099         2.024463         0.023010
 O         1.860490         2.386287        -1.331654
 C         1.010055         0.589955         0.523542
 C         0.768212        -0.692613        -0.317491
 H        -1.967456         1.462993         0.186147
 H        -1.322051         3.220873        -0.133140
 H        -0.902681         1.739839        -1.040638
 H         1.999283         0.629522         2.869162
 H         2.896527         2.896974         1.771424
 H         3.488306         1.369391         0.895036
 H         2.799287         2.646632        -1.284085
 H         0.047851        -1.228735         0.230033
 H         0.619064        -0.472237        -1.335766
 H         1.605967        -1.342739        -0.420540
