19
Iteration:   943charge 0 multiplicity 1
 C        -1.110894         2.262044        -0.126989
 C         0.168002         1.777506         0.574912
 O         0.363125         1.964137         2.050928
 C         1.579596         1.074722         1.931259
 C         2.624298         2.000788         1.241933
 C         1.622350         1.834449         0.009474
 O         1.738488         2.461647        -1.279535
 C         1.027773         0.555229         0.495354
 C         0.923127        -0.756274        -0.200102
 H        -1.930842         1.671121        -0.011805
 H        -1.408970         3.259325         0.112995
 H        -0.878247         2.201090        -1.201591
 H         1.660740         0.399049         2.779896
 H         2.839060         2.923564         1.822974
 H         3.537642         1.469430         0.967168
 H         2.348249         1.943957        -1.796420
 H         0.253002        -1.541960         0.194004
 H         0.585918        -0.597581        -1.163575
 H         2.047300        -1.145699        -0.169731
