19
Iteration:  4965
 C        -1.083154         2.405448         0.109826
 C         0.181886         1.850663         0.651445
 O         0.353391         1.687780         2.137841
 C         1.598748         1.030665         1.770997
 C         2.691581         2.142733         1.137621
 C         1.591442         1.971466         0.022407
 O         1.891210         2.261527        -1.291183
 C         0.945667         0.600449         0.418175
 C         0.775968        -0.753116        -0.318971
 H        -1.933260         1.951590         0.560596
 H        -1.184235         3.511208         0.079371
 H        -0.921661         2.064344        -0.952143
 H         1.888919         0.282210         2.490002
 H         2.809641         3.148393         1.500559
 H         3.610457         1.552836         1.030583
 H         1.953238         3.221687        -1.504347
 H         0.066499        -1.382469         0.255134
 H         0.407481        -0.719597        -1.324895
 H         1.661355        -1.440784        -0.194834
