19
Iteration:  4568
 C        -1.033977         2.419262         0.050679
 C         0.158275         1.802553         0.664023
 O         0.383565         1.899027         2.103903
 C         1.553014         1.014855         1.884048
 C         2.558129         1.919389         1.209142
 C         1.580106         1.942080        -0.031913
 O         1.857471         2.258375        -1.392996
 C         1.091914         0.588124         0.441561
 C         0.855730        -0.722744        -0.276580
 H        -1.909752         2.083885         0.638966
 H        -0.939507         3.473883         0.329315
 H        -1.091317         2.340304        -0.995656
 H         1.700766         0.354661         2.681324
 H         2.764640         2.862797         1.677892
 H         3.430326         1.345016         0.913781
 H         1.425799         3.119042        -1.430971
 H        -0.037456        -1.304037        -0.061921
 H         0.621757        -0.562529        -1.328464
 H         1.722250        -1.433193        -0.110394
