19
Iteration:  3210charge 0 multiplicity 1
 C        -1.135388         2.401886        -0.027041
 C         0.226530         1.862676         0.558501
 O         0.349148         1.884306         2.008237
 C         1.475906         1.083807         1.789286
 C         2.554905         2.010457         1.211011
 C         1.643181         1.916829         0.028543
 O         1.811468         2.419050        -1.229394
 C         1.059690         0.542403         0.399181
 C         0.943446        -0.904537        -0.134054
 H        -1.893149         1.924128         0.522935
 H        -1.270291         3.487320         0.056473
 H        -1.223064         2.174110        -1.090956
 H         1.595247         0.487575         2.758233
 H         2.776945         2.930534         1.822568
 H         3.562159         1.486734         0.967993
 H         2.565559         1.888867        -1.579252
 H         0.377469        -1.451057         0.643279
 H         0.469388        -0.949960        -1.193210
 H         1.943274        -1.419451        -0.295868
