19
Iteration:  1402
 C        -0.995245         2.263886         0.005943
 C         0.280692         1.784875         0.581919
 O         0.275798         1.879251         1.960298
 C         1.509604         1.101408         1.889513
 C         2.589390         2.140748         1.202488
 C         1.674989         1.875881         0.015544
 O         1.791254         2.268597        -1.286694
 C         1.073649         0.564392         0.482617
 C         0.800847        -0.689766        -0.202506
 H        -1.732347         1.588901         0.341811
 H        -1.067829         3.140527         0.601348
 H        -1.036007         2.614031        -1.121008
 H         1.565584         0.393300         2.803453
 H         2.406400         3.109295         1.612298
 H         3.676137         2.026488         1.053640
 H         2.526106         1.765958        -1.719703
 H         0.021745        -1.172023         0.452653
 H         0.467378        -0.619841        -1.348305
 H         1.587553        -1.343477        -0.182003
