19
Iteration:  1105charge 0 multiplicity 1
 C        -1.054571         2.325451        -0.155434
 C         0.137273         1.736303         0.603785
 O         0.356344         1.820145         2.113783
 C         1.590872         1.074121         1.866642
 C         2.536349         2.070923         1.239899
 C         1.636185         1.895734        -0.020849
 O         1.795227         2.480204        -1.316235
 C         1.111885         0.575101         0.394677
 C         0.826120        -0.812206        -0.084135
 H        -2.001251         1.952910         0.315731
 H        -1.057230         3.418614         0.017583
 H        -0.949916         1.983390        -1.272754
 H         1.822185         0.535763         2.750538
 H         2.659584         3.078834         1.702609
 H         3.514911         1.727361         1.027231
 H         2.613134         2.005767        -1.625276
 H        -0.015907        -1.301954         0.472712
 H         0.601567        -0.812628        -1.295309
 H         1.671243        -1.408407        -0.006062
