19
Iteration:   905charge 0 multiplicity 1
 C        -0.980155         2.256317        -0.164642
 C         0.145232         1.822170         0.695485
 O         0.298183         1.930916         2.119047
 C         1.542521         1.089019         1.902324
 C         2.619412         1.923098         1.234232
 C         1.586651         1.909003        -0.048256
 O         1.683324         2.522824        -1.328636
 C         1.100515         0.557056         0.464667
 C         0.938763        -0.806356        -0.142858
 H        -1.926346         1.558645         0.118025
 H        -1.104100         3.383809        -0.130897
 H        -0.695789         1.967863        -1.211731
 H         1.610340         0.311548         2.678949
 H         2.968058         2.891771         1.617751
 H         3.435597         1.332987         0.759949
 H         2.480651         2.339910        -1.837279
 H         0.072351        -1.319865         0.327028
 H         0.863255        -0.902303        -1.340465
 H         1.842037        -1.447759         0.070646
