19
Iteration:  1770charge 0 multiplicity 1
 C        -1.084919         2.178490        -0.029278
 C         0.212623         1.799236         0.600437
 O         0.351286         2.061510         1.990894
 C         1.492504         1.096944         1.890792
 C         2.596596         1.922513         1.208617
 C         1.583031         1.891668        -0.006898
 O         1.896741         2.366941        -1.286533
 C         1.024890         0.551844         0.547140
 C         0.856056        -0.660951        -0.242460
 H        -1.728088         1.487450         0.622962
 H        -1.280221         3.189677         0.261989
 H        -1.300238         1.970805        -0.991067
 H         1.762897         0.605890         2.813437
 H         2.780350         2.960663         1.561292
 H         3.482152         1.326761         1.083781
 H         2.116421         1.614132        -1.838702
 H         0.189101        -1.426191         0.129269
 H         0.632154        -0.482245        -1.247923
 H         1.904006        -1.079701        -0.303641
