19
Iteration:  1229charge 0 multiplicity 1
 C        -0.932795         2.298456        -0.131177
 C         0.239039         1.836847         0.637358
 O         0.318033         1.934750         2.035467
 C         1.531111         1.118964         1.934667
 C         2.553815         2.011856         1.201489
 C         1.602236         1.962054         0.038239
 O         1.665384         2.358622        -1.275969
 C         1.160051         0.545105         0.490644
 C         0.858033        -0.845093        -0.247019
 H        -1.631018         1.547721         0.186019
 H        -1.326692         3.249181         0.265034
 H        -0.812327         2.290882        -1.303759
 H         1.816446         0.723453         2.994991
 H         2.699918         2.934998         1.724636
 H         3.525609         1.462456         1.047459
 H         2.256901         1.809409        -1.827268
 H         0.052604        -1.380029         0.227597
 H         0.507998        -0.574917        -1.229389
 H         1.728602        -1.520636        -0.343065
