19
Iteration:  4757charge 0 multiplicity 1
 C        -1.101746         2.372897         0.018291
 C         0.171671         1.913652         0.621867
 O         0.419283         1.974744         2.085125
 C         1.570638         0.987725         1.869733
 C         2.680356         1.840408         1.113528
 C         1.576485         1.829736         0.054037
 O         1.788468         2.291398        -1.262337
 C         0.942869         0.606879         0.470751
 C         0.952779        -0.694780        -0.317927
 H        -1.907164         1.807687         0.520404
 H        -1.447613         3.384134         0.335517
 H        -1.206404         2.344754        -1.098041
 H         1.716811         0.323443         2.777611
 H         2.962463         2.724029         1.655262
 H         3.542487         1.169566         0.869458
 H         1.197201         3.038785        -1.443491
 H         0.196832        -1.391506        -0.127364
 H         0.790714        -0.342351        -1.347734
 H         2.014700        -1.229730        -0.284805
