19
Iteration:  2181charge 0 multiplicity 1
 C        -1.163907         2.123677        -0.004705
 C         0.163545         1.860234         0.621714
 O         0.389487         1.913155         1.946266
 C         1.512842         1.025109         1.811317
 C         2.607421         1.888040         1.233166
 C         1.619128         2.033104         0.032504
 O         1.854436         2.469501        -1.296610
 C         1.034458         0.643985         0.443458
 C         0.937259        -0.706355        -0.099504
 H        -2.043900         1.753301         0.628374
 H        -1.335226         3.260105        -0.097405
 H        -1.338018         1.758430        -0.946706
 H         1.610856         0.287710         2.598065
 H         2.809198         2.779983         1.799627
 H         3.530700         1.495739         0.803928
 H         2.145676         1.785358        -1.960418
 H         0.031464        -1.237237         0.151136
 H         0.990024        -0.797122        -1.153152
 H         1.865849        -1.241335         0.306913
