19
Iteration:  2797charge 0 multiplicity 1
 C        -1.090269         2.137318         0.021227
 C         0.292692         1.749114         0.521074
 O         0.287385         1.899646         1.967197
 C         1.535071         1.092292         1.868350
 C         2.512652         2.065017         1.201027
 C         1.635796         2.045243        -0.028645
 O         1.914448         2.501646        -1.211594
 C         1.107323         0.501874         0.453181
 C         0.763023        -0.845270        -0.189912
 H        -1.802671         1.661162         0.654325
 H        -1.184939         3.242847         0.192773
 H        -1.374886         1.942194        -0.960595
 H         1.746761         0.498166         2.707074
 H         2.686892         3.097305         1.724885
 H         3.451350         1.520927         0.946693
 H         2.834897         2.683575        -1.357267
 H         0.039489        -1.482586         0.291278
 H         0.356100        -0.600734        -1.113924
 H         1.639066        -1.557506        -0.352926
