19
Iteration:  1917
 C        -1.140535         2.252225        -0.065629
 C         0.182960         1.841087         0.599011
 O         0.278852         1.863262         2.053279
 C         1.565000         1.012028         1.838221
 C         2.616401         2.003850         1.184987
 C         1.642396         1.947226        -0.034350
 O         1.883071         2.371660        -1.312698
 C         1.065222         0.631356         0.500887
 C         0.825907        -0.682888        -0.107555
 H        -1.934398         1.785731         0.421909
 H        -1.312485         3.343018        -0.238874
 H        -1.074206         1.665607        -1.030181
 H         1.793774         0.498729         2.728530
 H         2.838128         2.926090         1.742988
 H         3.592932         1.462569         0.869199
 H         2.718013         2.043068        -1.703857
 H         0.395174        -1.298856         0.687202
 H         0.185024        -0.665901        -0.968590
 H         1.810933        -1.203668        -0.362953
