19
Iteration:   495
 C        -1.009990         2.361806        -0.170863
 C         0.179462         1.796230         0.581623
 O         0.354956         1.943008         2.117373
 C         1.545232         1.145857         1.927568
 C         2.587291         2.020797         1.125124
 C         1.574772         1.938656         0.024432
 O         1.685940         2.419699        -1.204068
 C         1.067189         0.473024         0.519720
 C         0.951730        -0.923918        -0.232514
 H        -1.955573         1.743774        -0.020299
 H        -1.165588         3.474348        -0.225911
 H        -0.890208         2.196052        -1.242822
 H         1.791535         0.586651         2.897283
 H         2.692868         2.945751         1.729587
 H         3.581124         1.512118         0.987402
 H         2.423010         1.922967        -1.603042
 H         0.007676        -1.391262         0.003321
 H         0.886406        -0.712726        -1.285323
 H         1.914336        -1.456595        -0.162550
