19
Iteration:  1233charge 0 multiplicity 1
 C        -0.916886         2.307488        -0.096762
 C         0.255826         1.840911         0.610060
 O         0.335406         1.893289         2.014232
 C         1.509302         1.119165         1.954324
 C         2.535460         2.031096         1.185799
 C         1.602541         1.920140         0.007103
 O         1.662908         2.368771        -1.261621
 C         1.165288         0.575446         0.485977
 C         0.842231        -0.831725        -0.225612
 H        -1.734195         1.487842         0.230864
 H        -1.306896         3.363605         0.157390
 H        -0.808231         2.331748        -1.186077
 H         1.698923         0.696952         2.917149
 H         2.678713         3.042148         1.686547
 H         3.506985         1.498508         1.090843
 H         2.296855         1.762684        -1.717509
 H         0.051601        -1.388518         0.347372
 H         0.632715        -0.588460        -1.283684
 H         1.776352        -1.576057        -0.351853
