19
Iteration:  1626
 C        -1.082929         2.256925        -0.084634
 C         0.182268         1.918534         0.599695
 O         0.368549         1.940254         1.990508
 C         1.544206         1.050901         1.834504
 C         2.644424         1.937917         1.138837
 C         1.611911         1.903202         0.054273
 O         1.779317         2.411235        -1.247772
 C         0.955538         0.580918         0.481996
 C         0.894309        -0.832166        -0.110396
 H        -1.942328         1.450456        -0.141240
 H        -1.419264         3.241536         0.360704
 H        -0.851843         2.483558        -1.035510
 H         1.831112         0.785917         2.854169
 H         2.868900         2.983105         1.508955
 H         3.483510         1.365692         0.802308
 H         2.649004         2.076224        -1.431287
 H         0.021413        -1.358667         0.282563
 H         0.811023        -0.766744        -1.195345
 H         1.875340        -1.306967         0.121308
