19
Iteration:  1343
 C        -0.969798         2.169663        -0.144526
 C         0.195236         1.897837         0.609034
 O         0.327220         2.010714         2.029247
 C         1.552140         1.097264         1.827543
 C         2.633274         1.910641         1.212593
 C         1.597486         1.879702         0.009776
 O         1.747351         2.404923        -1.236529
 C         0.998715         0.581164         0.579913
 C         0.879778        -0.712765        -0.208458
 H        -1.896468         1.542107         0.379364
 H        -1.350176         3.235087         0.057383
 H        -0.848938         1.793349        -1.113015
 H         1.772845         0.558848         2.665225
 H         2.934503         2.879075         1.749774
 H         3.477786         1.285921         0.919278
 H         2.348295         1.848350        -1.717609
 H         0.231116        -1.499397         0.207808
 H         0.301234        -0.528911        -1.082527
 H         1.886367        -1.265253        -0.394026
