19
Iteration:  3883
 C        -0.961349         2.437775        -0.065910
 C         0.125496         1.778589         0.737388
 O         0.323180         1.876011         2.161008
 C         1.572784         1.046522         1.919932
 C         2.511923         1.975467         1.151843
 C         1.595436         1.906771        -0.043431
 O         1.815829         2.439065        -1.345786
 C         1.092716         0.545560         0.454339
 C         0.918087        -0.823678        -0.272916
 H        -1.915809         1.921561         0.134643
 H        -1.190220         3.477460         0.412501
 H        -0.781881         2.409972        -1.111892
 H         1.892576         0.449399         2.805680
 H         2.530765         3.008073         1.636198
 H         3.543297         1.625741         0.953861
 H         1.511281         1.668052        -1.926832
 H         0.149661        -1.545629         0.096703
 H         0.508313        -0.590799        -1.295325
 H         1.963928        -1.496741        -0.335921
