19
Iteration:  1605charge 0 multiplicity 1
 C        -1.076491         2.213550        -0.013470
 C         0.177945         1.745906         0.565369
 O         0.399709         2.119388         2.055619
 C         1.462430         1.116800         1.915036
 C         2.541606         1.847400         1.161541
 C         1.611064         1.875214        -0.047127
 O         1.865181         2.476632        -1.335660
 C         1.012394         0.546548         0.562623
 C         0.901409        -0.785842        -0.185425
 H        -1.763214         1.213268         0.067080
 H        -1.497586         3.102173         0.522641
 H        -1.128955         2.354673        -1.012430
 H         1.578690         0.373514         2.709505
 H         2.847092         2.871938         1.607581
 H         3.361154         1.206299         0.835237
 H         2.767874         2.112536        -1.626590
 H         0.029124        -1.302326         0.167047
 H         0.762206        -0.486020        -1.186081
 H         1.935344        -1.315173        -0.123380
