19
Iteration:  3842charge 0 multiplicity 1
 C        -0.990372         2.445757         0.096451
 C         0.208341         1.777285         0.566911
 O         0.238882         1.835312         1.975942
 C         1.568898         0.994348         1.803149
 C         2.561205         1.998808         1.154141
 C         1.548594         1.965255         0.012791
 O         1.865691         2.340874        -1.284027
 C         1.074838         0.532426         0.382179
 C         0.971430        -0.795215        -0.094832
 H        -1.931893         2.023030         0.346643
 H        -1.010164         3.512804         0.528130
 H        -1.265043         2.442310        -0.992093
 H         1.695947         0.332228         2.644754
 H         2.527246         2.980864         1.710177
 H         3.591778         1.586019         0.934609
 H         1.289959         2.987582        -1.683415
 H         0.470296        -1.270337         0.757378
 H         0.477057        -0.736691        -1.066256
 H         1.866591        -1.341661        -0.324245
