19
Iteration:  1688charge 0 multiplicity 1
 C        -1.019147         2.409742        -0.082707
 C         0.202422         1.761779         0.543833
 O         0.303053         1.869503         2.088041
 C         1.571365         1.131694         1.855884
 C         2.544064         2.125646         1.213354
 C         1.687290         1.886003         0.015988
 O         1.755713         2.367317        -1.244307
 C         1.096366         0.490766         0.443797
 C         0.837858        -0.943368        -0.173491
 H        -1.906317         2.276314         0.382597
 H        -0.998654         3.526123         0.035954
 H        -1.005244         2.320361        -1.291812
 H         2.068073         0.656455         2.782012
 H         2.508688         3.167346         1.483946
 H         3.633696         1.918890         1.026941
 H         2.367831         2.053635        -1.897767
 H         0.237248        -1.456977         0.623103
 H         0.151544        -0.650363        -1.125806
 H         1.652723        -1.586004        -0.332524
