19
Iteration:   754charge 0 multiplicity 1
 C        -1.024492         2.280815        -0.132561
 C         0.198978         1.744981         0.666081
 O         0.284526         1.920588         2.060001
 C         1.550644         1.136216         1.915966
 C         2.580405         2.038845         1.210969
 C         1.608269         1.957528         0.055694
 O         1.729555         2.429339        -1.335981
 C         1.102962         0.544923         0.474932
 C         0.879492        -0.850308        -0.207619
 H        -1.907864         1.565410        -0.033027
 H        -1.337132         3.269829         0.190863
 H        -0.588458         2.265530        -1.095896
 H         1.952387         0.686481         2.895108
 H         2.856829         3.034949         1.803956
 H         3.565368         1.531392         0.928120
 H         2.419574         1.827583        -1.574633
 H         0.142658        -1.461020         0.256716
 H         0.651783        -0.778230        -1.322925
 H         1.949255        -1.401156        -0.449013
