19
Iteration:  3422
 C        -0.979665         2.427686        -0.081090
 C         0.148622         1.796763         0.670546
 O         0.367109         1.883828         2.117220
 C         1.522671         0.999216         1.826747
 C         2.510786         2.062621         1.102462
 C         1.582797         1.877966         0.022501
 O         1.746662         2.361375        -1.258008
 C         0.973252         0.599312         0.414095
 C         0.966169        -0.851006        -0.193043
 H        -1.872885         2.038241         0.345652
 H        -0.979640         3.502507        -0.023973
 H        -0.881924         2.342745        -1.130116
 H         1.879350         0.396629         2.590366
 H         2.604587         3.038610         1.661026
 H         3.544223         1.653267         1.095535
 H         2.717086         2.419915        -1.480780
 H         0.587482        -1.611523         0.667694
 H         0.558744        -0.978630        -1.210234
 H         2.010088        -1.308371        -0.425482
