19
Iteration:  4318charge 0 multiplicity 1
 C        -1.066898         2.332276         0.065586
 C         0.255258         1.864002         0.693628
 O         0.373873         1.995798         2.064288
 C         1.490671         1.040376         1.848196
 C         2.600844         1.843054         1.158506
 C         1.633375         1.869581         0.022948
 O         1.850906         2.212858        -1.335777
 C         0.960330         0.617018         0.429674
 C         0.909769        -0.613491        -0.274554
 H        -2.012543         1.695453         0.403542
 H        -1.128427         3.303084         0.625513
 H        -1.120080         2.489254        -1.056501
 H         1.721022         0.378814         2.637717
 H         2.970297         2.777378         1.678107
 H         3.416747         1.080318         1.035409
 H         1.223553         2.861226        -1.735207
 H         0.182235        -1.324935         0.098679
 H         0.650332        -0.496574        -1.338888
 H         1.802215        -1.170229        -0.349963
