19
Iteration:  4317charge 0 multiplicity 1
 C        -1.058766         2.333151         0.066371
 C         0.256681         1.864472         0.681219
 O         0.365254         1.996337         2.071314
 C         1.487489         1.035886         1.844992
 C         2.605837         1.841303         1.153795
 C         1.632730         1.881935         0.026968
 O         1.852241         2.213328        -1.345130
 C         0.971016         0.613083         0.438415
 C         0.900228        -0.616361        -0.272100
 H        -2.027488         1.726948         0.417369
 H        -1.152147         3.294418         0.671973
 H        -1.107352         2.464524        -1.043135
 H         1.691857         0.332693         2.645760
 H         2.954294         2.794142         1.666112
 H         3.414893         1.095471         1.045918
 H         1.219833         2.875478        -1.740136
 H         0.221461        -1.334986         0.077906
 H         0.660758        -0.504189        -1.301160
 H         1.803468        -1.174505        -0.353754
