19
Iteration:  1337charge 0 multiplicity 1
 C        -1.030628         2.177451        -0.111411
 C         0.210074         1.879212         0.551117
 O         0.370891         2.023658         2.019053
 C         1.520591         1.114548         1.925735
 C         2.628909         1.859174         1.236838
 C         1.597073         1.910056         0.024039
 O         1.737616         2.443670        -1.258728
 C         1.027434         0.569754         0.507262
 C         0.888281        -0.744770        -0.193311
 H        -1.776702         1.651785         0.335212
 H        -1.323858         3.195057        -0.057277
 H        -1.005728         1.814269        -1.195552
 H         1.766791         0.460292         2.852596
 H         2.889119         2.814409         1.627949
 H         3.513159         1.259228         0.962430
 H         2.346505         1.839862        -1.761336
 H         0.268973        -1.498494         0.361362
 H         0.351746        -0.631399        -1.232839
 H         1.825260        -1.184240        -0.354869
