19
Iteration:  2082charge 0 multiplicity 1
 C        -1.002910         2.283787        -0.028413
 C         0.225410         1.829477         0.559429
 O         0.216300         1.728077         2.082223
 C         1.583447         1.054539         1.831918
 C         2.525786         2.134182         1.177327
 C         1.657901         1.937038        -0.046734
 O         1.816278         2.361294        -1.369579
 C         1.157074         0.611885         0.417915
 C         0.793653        -0.760030        -0.014145
 H        -1.950716         1.738622         0.070838
 H        -1.111937         3.364194         0.436259
 H        -0.843607         2.503838        -1.016528
 H         1.875108         0.396171         2.543233
 H         2.293477         3.087072         1.628357
 H         3.596096         1.868085         1.378926
 H         2.748764         2.342821        -1.672850
 H         0.390236        -1.412519         0.757233
 H         0.139672        -0.723688        -0.878684
 H         1.748173        -1.322496        -0.440186
