19
Iteration:  1403
 C        -0.987419         2.258270         0.010282
 C         0.281627         1.790058         0.574996
 O         0.282476         1.876159         1.964269
 C         1.498824         1.110443         1.886092
 C         2.584703         2.141611         1.197255
 C         1.676706         1.868633         0.015208
 O         1.794916         2.274744        -1.287457
 C         1.066737         0.559439         0.471946
 C         0.807798        -0.691853        -0.197960
 H        -1.727280         1.632565         0.341667
 H        -1.089982         3.138525         0.636898
 H        -1.072589         2.610008        -1.108839
 H         1.529537         0.395052         2.834811
 H         2.408319         3.095273         1.644715
 H         3.675388         2.002072         1.060314
 H         2.504738         1.774189        -1.717957
 H         0.026591        -1.153774         0.458599
 H         0.448773        -0.623432        -1.354359
 H         1.606068        -1.358360        -0.141654
