19
Iteration:  3664
 C        -1.127830         2.368117        -0.062822
 C         0.122142         1.773487         0.539031
 O         0.376622         1.946608         1.986530
 C         1.500840         1.040208         1.830268
 C         2.662022         1.882735         1.229589
 C         1.591086         1.950612        -0.030204
 O         1.759068         2.538997        -1.269012
 C         1.007091         0.523539         0.455801
 C         0.992918        -0.916437        -0.072647
 H        -1.994341         1.726038         0.151840
 H        -1.143502         3.480397         0.523645
 H        -1.198245         2.836323        -1.024789
 H         1.744923         0.441287         2.764002
 H         3.025248         2.822390         1.769160
 H         3.422394         1.134443         1.019891
 H         2.626120         2.522566        -1.698913
 H         0.508932        -1.679098         0.594673
 H         0.524164        -0.960285        -1.045745
 H         2.021829        -1.187464        -0.225884
