19
Iteration:  3859charge 0 multiplicity 1
 C        -1.000708         2.509257        -0.003871
 C         0.148833         1.784650         0.581688
 O         0.356164         1.763772         2.079068
 C         1.570825         1.032686         1.816352
 C         2.498027         2.119031         1.170049
 C         1.609931         1.876281        -0.031811
 O         1.877938         2.362856        -1.265265
 C         0.992652         0.535848         0.446492
 C         0.928857        -0.835644        -0.168626
 H        -2.032551         2.061933         0.277188
 H        -1.040129         3.519025         0.408649
 H        -0.865209         2.566429        -1.060626
 H         1.951535         0.439688         2.688601
 H         2.615390         3.087847         1.660992
 H         3.467309         1.713704         0.950518
 H         1.019327         2.381430        -1.707968
 H         0.403611        -1.650862         0.356477
 H         0.400667        -0.896412        -1.149405
 H         2.053663        -1.152634        -0.186591
