19
Iteration:  2447charge 0 multiplicity 1
 C        -1.044076         2.316127        -0.014205
 C         0.192171         1.788565         0.543146
 O         0.317030         1.902870         2.032251
 C         1.461435         1.090915         1.894917
 C         2.560197         1.967496         1.124452
 C         1.619412         1.869863        -0.042586
 O         1.766079         2.539124        -1.212433
 C         1.049716         0.520357         0.495903
 C         1.033931        -0.819231        -0.161296
 H        -1.979251         1.752205         0.176192
 H        -1.317790         3.311911         0.375124
 H        -0.949925         2.405226        -1.185615
 H         1.536153         0.274367         2.697650
 H         2.630737         2.955733         1.583232
 H         3.498745         1.475339         0.998479
 H         2.235955         2.075848        -1.952410
 H         0.690811        -1.560813         0.579495
 H         0.525969        -1.012530        -1.172528
 H         2.017004        -1.181034        -0.315427
