19
Iteration:  1883charge 0 multiplicity 1
 C        -1.038480         2.196397        -0.125900
 C         0.192718         1.873488         0.537789
 O         0.392530         2.065860         2.017531
 C         1.522954         1.044794         1.899620
 C         2.548705         1.825038         1.107224
 C         1.576516         1.916021        -0.035564
 O         1.801509         2.593994        -1.185345
 C         0.998661         0.509387         0.484846
 C         0.902028        -0.841940        -0.056147
 H        -1.781591         1.529712         0.138673
 H        -1.457420         3.186174        -0.008347
 H        -0.892141         2.222360        -1.317025
 H         1.818162         0.478960         2.833339
 H         2.980031         2.603361         1.768632
 H         3.400205         1.067182         0.776897
 H         2.352628         2.121754        -1.808893
 H         0.336497        -1.394634         0.712752
 H         0.379744        -0.995432        -0.935631
 H         2.013427        -1.268149        -0.233363
