19
Iteration:  1266
 C        -1.054062         2.396695        -0.040508
 C         0.090088         1.736317         0.632895
 O         0.297698         1.829643         2.094693
 C         1.618541         1.089449         1.824727
 C         2.524384         2.077305         1.205068
 C         1.656451         1.955291        -0.081425
 O         1.854924         2.424399        -1.372773
 C         1.104639         0.541054         0.380792
 C         0.863504        -0.865668        -0.044274
 H        -2.179678         2.041203         0.397732
 H        -1.020336         3.564076         0.018651
 H        -1.257152         2.195381        -1.119020
 H         1.797960         0.425530         2.622252
 H         2.464046         3.020487         1.861308
 H         3.580967         1.734394         1.202365
 H         2.794585         2.063317        -1.372026
 H        -0.018539        -1.414868         0.405543
 H         0.609614        -0.897385        -1.142673
 H         1.838629        -1.592149         0.023798
