19
Iteration:  3898charge 0 multiplicity 1
 C        -1.004315         2.325272        -0.003416
 C         0.233500         1.772377         0.614240
 O         0.349520         1.861694         2.036410
 C         1.571785         1.051244         1.850793
 C         2.587938         2.022594         1.178962
 C         1.574929         1.917670         0.059169
 O         1.740534         2.377408        -1.259532
 C         0.967222         0.562096         0.483170
 C         0.882551        -0.687376        -0.261515
 H        -1.877875         1.696627         0.242802
 H        -1.038924         3.390794         0.269226
 H        -0.587680         2.488118        -1.083118
 H         1.835316         0.468194         2.712992
 H         2.935537         2.950623         1.669401
 H         3.501405         1.379835         0.943262
 H         2.078830         1.714998        -1.888549
 H         0.096258        -1.374324         0.173797
 H         0.622765        -0.565052        -1.340359
 H         1.917689        -1.171120        -0.199729
