19
Iteration:  2633
 C        -1.025202         2.276756         0.112191
 C         0.212948         1.675808         0.560472
 O         0.242427         1.845905         2.000424
 C         1.478544         1.039115         1.814782
 C         2.482204         2.184141         1.216322
 C         1.644982         1.977774        -0.029125
 O         1.882639         2.491112        -1.336580
 C         1.158464         0.531638         0.341985
 C         0.849640        -0.892851        -0.117267
 H        -1.888122         1.887522         0.574714
 H        -0.923042         3.301158         0.553241
 H        -1.095888         2.332553        -0.981699
 H         1.660404         0.653404         2.777727
 H         2.553357         3.207151         1.627099
 H         3.404277         1.643118         1.113123
 H         2.831286         2.217925        -1.499739
 H         0.402165        -1.493576         0.684083
 H         0.307507        -0.934684        -1.099686
 H         1.818941        -1.346563        -0.192234
