19
Iteration:  2170
 C        -1.178452         2.072938        -0.037111
 C         0.225419         1.862178         0.542235
 O         0.385584         2.048991         2.062385
 C         1.502213         1.036561         1.864394
 C         2.634278         1.918113         1.227182
 C         1.613714         1.955257        -0.031609
 O         1.838171         2.555806        -1.249681
 C         1.030342         0.594688         0.442372
 C         0.915528        -0.786861        -0.185902
 H        -1.925043         1.589215         0.670304
 H        -1.437125         3.178172        -0.155105
 H        -1.249192         1.616946        -0.966586
 H         1.586672         0.302489         2.650253
 H         3.067082         2.802819         1.638920
 H         3.385777         1.149293         1.007261
 H         2.063719         1.796675        -1.816578
 H         0.018719        -1.284796         0.168217
 H         0.960648        -0.786403        -1.242934
 H         1.730660        -1.484585         0.167035
