19
Iteration:  4835charge 0 multiplicity 1
 C        -0.979592         2.424277         0.135617
 C         0.236595         1.761436         0.608016
 O         0.345460         1.874650         2.073231
 C         1.570582         0.978427         1.856196
 C         2.528333         1.993452         1.229239
 C         1.596969         1.946912        -0.054116
 O         1.775749         2.371138        -1.399791
 C         1.108936         0.561421         0.430785
 C         0.809827        -0.813500        -0.247449
 H        -1.977025         2.097433         0.533032
 H        -0.816868         3.530454         0.394590
 H        -1.132386         2.304221        -0.993179
 H         1.754405         0.298954         2.683145
 H         2.669611         2.817942         1.934328
 H         3.501352         1.596093         0.871627
 H         2.008386         3.284477        -1.537553
 H         0.292349        -1.390644         0.506281
 H         0.221911        -0.909468        -1.137023
 H         1.775424        -1.428809        -0.553140
