19
Iteration:  1019charge 0 multiplicity 1
 C        -1.069109         2.183528         0.044458
 C         0.199860         1.854621         0.618615
 O         0.283446         1.881225         2.055262
 C         1.530216         1.057272         1.867873
 C         2.516316         2.055695         1.207812
 C         1.607948         2.029639        -0.000558
 O         1.947838         2.354390        -1.359320
 C         1.002583         0.610404         0.455503
 C         0.878357        -0.770630        -0.236895
 H        -1.863836         1.627556         0.477551
 H        -1.194891         3.239841         0.239946
 H        -1.152035         2.030424        -1.071487
 H         1.737270         0.579223         2.803738
 H         2.666556         3.091254         1.581985
 H         3.413619         1.503701         1.000438
 H         2.693467         1.725995        -1.575910
 H         0.300742        -1.497405         0.338277
 H         0.430659        -0.774818        -1.135598
 H         1.966879        -1.166780        -0.296389
