19
Iteration:  1123
 C        -1.050532         2.308132         0.052511
 C         0.179155         1.755377         0.551827
 O         0.281074         1.824003         2.023818
 C         1.538495         1.060991         1.857406
 C         2.533724         2.175029         1.197304
 C         1.641321         2.018062        -0.007964
 O         1.928315         2.434201        -1.326475
 C         1.030326         0.572732         0.434679
 C         0.813671        -0.917805        -0.149198
 H        -1.944372         1.763407         0.511505
 H        -1.109762         3.399323         0.052284
 H        -0.853939         2.109880        -0.950363
 H         1.983757         0.505024         2.723330
 H         2.560692         3.149864         1.715995
 H         3.603062         1.798744         1.186415
 H         2.533241         1.770191        -1.750107
 H         0.153308        -1.374257         0.615632
 H         0.501951        -0.883360        -1.226699
 H         1.679842        -1.666291        -0.296441
