19
Iteration:  1881charge 0 multiplicity 1
 C        -1.043249         2.208008        -0.136175
 C         0.197370         1.873352         0.535378
 O         0.396279         2.068955         1.981502
 C         1.533991         1.033303         1.911507
 C         2.558055         1.839196         1.109121
 C         1.569248         1.899388        -0.025680
 O         1.790318         2.602704        -1.176625
 C         1.002057         0.505240         0.498283
 C         0.906003        -0.843887        -0.045915
 H        -1.848463         1.513913         0.135195
 H        -1.434961         3.151662         0.025313
 H        -0.897218         2.271416        -1.286160
 H         1.810523         0.375281         2.846956
 H         3.016972         2.597929         1.769065
 H         3.344924         1.112272         0.768504
 H         2.352183         2.112469        -1.823987
 H         0.307475        -1.430083         0.678927
 H         0.366879        -0.926050        -0.930153
 H         2.006569        -1.312628        -0.236040
