19
Iteration:  3791
 C        -1.053456         2.137561        -0.027459
 C         0.209902         1.859647         0.641845
 O         0.405700         1.968883         2.064956
 C         1.507137         1.029662         1.827934
 C         2.530270         1.968611         1.078320
 C         1.530090         1.940120         0.056960
 O         1.883706         2.383662        -1.239287
 C         1.027430         0.595385         0.437962
 C         0.867721        -0.712873        -0.183868
 H        -1.992831         1.689623         0.450298
 H        -1.399681         3.117895         0.089274
 H        -1.089076         1.906485        -1.172968
 H         1.691881         0.294615         2.598924
 H         2.884083         2.869277         1.515037
 H         3.319338         1.309225         0.677290
 H         2.701511         2.895793        -1.142858
 H         0.106240        -1.451862         0.269387
 H         0.468187        -0.508409        -1.252192
 H         1.947129        -1.207739        -0.237957
