19
Iteration:  1149
 C        -1.200280         2.234207         0.063727
 C         0.167229         1.808534         0.484341
 O         0.327104         1.900283         1.964456
 C         1.542489         1.073813         1.893365
 C         2.493842         2.030885         1.221178
 C         1.665999         1.859610        -0.056776
 O         1.934084         2.378421        -1.269765
 C         1.126338         0.607438         0.469144
 C         0.879427        -0.705883        -0.150868
 H        -1.954191         1.615291         0.538486
 H        -1.237504         3.256840         0.461781
 H        -1.247660         2.351030        -1.067207
 H         1.861518         0.503092         2.729566
 H         2.608217         3.009942         1.730635
 H         3.428670         1.547488         1.246620
 H         2.566649         1.908327        -1.860767
 H         0.392080        -1.276507         0.674058
 H         0.317893        -0.628982        -1.231353
 H         1.682322        -1.277793        -0.449775
