19
Iteration:  4401charge 0 multiplicity 1
 C        -1.032436         2.401794        -0.014164
 C         0.253801         1.793620         0.595783
 O         0.356437         1.813068         2.116743
 C         1.580971         1.033330         1.741638
 C         2.586271         2.007153         1.243764
 C         1.632647         1.947208        -0.039227
 O         1.843869         2.317293        -1.348805
 C         1.092007         0.525227         0.428248
 C         0.676628        -0.739877        -0.128782
 H        -1.831399         1.986428         0.618452
 H        -1.048318         3.528216         0.129278
 H        -1.158242         2.206667        -1.046961
 H         2.061634         0.111039         2.238646
 H         2.646794         2.920479         1.828552
 H         3.550724         1.621541         1.031645
 H         1.943392         3.263536        -1.368570
 H        -0.141426        -1.222267         0.537243
 H         0.278427        -0.446537        -1.113457
 H         1.714292        -1.318854        -0.091396
