19
Iteration:   972
 C        -1.040255         2.256431         0.095680
 C         0.229142         1.803267         0.541208
 O         0.298568         1.882911         2.014535
 C         1.497827         1.154321         1.894990
 C         2.517817         2.135961         1.213697
 C         1.590125         1.930575        -0.007286
 O         1.895032         2.318543        -1.307014
 C         1.031382         0.559216         0.448141
 C         0.902974        -0.773277        -0.263654
 H        -1.813231         1.399429         0.412375
 H        -1.250441         3.287787         0.505194
 H        -1.081900         2.240104        -0.976031
 H         1.665438         0.413510         2.741138
 H         2.661481         3.067879         1.812127
 H         3.395777         1.569686         0.933010
 H         2.711639         1.780635        -1.475962
 H         0.384499        -1.545629         0.306154
 H         0.264163        -0.732773        -1.199042
 H         1.910346        -1.127131        -0.474651
