19
Iteration:  4506charge 0 multiplicity 1
 C        -1.077041         2.316794         0.061368
 C         0.188645         1.858872         0.690765
 O         0.421283         1.851567         2.020102
 C         1.576078         1.031127         1.916265
 C         2.585408         1.911321         1.160078
 C         1.581186         1.875483        -0.004833
 O         1.918528         2.248370        -1.367042
 C         0.970440         0.607800         0.457799
 C         0.772876        -0.600422        -0.244217
 H        -2.029364         1.851306         0.417766
 H        -1.211414         3.389867         0.338774
 H        -1.148498         2.202892        -1.095047
 H         1.773826         0.368867         2.795539
 H         2.835676         2.901977         1.601332
 H         3.569302         1.398421         0.875174
 H         1.816170         3.200975        -1.420117
 H         0.122247        -1.270984         0.244401
 H         0.568600        -0.276708        -1.297316
 H         1.796362        -1.020982        -0.375517
