19
Iteration:  3636
 C        -0.986673         2.377436        -0.025976
 C         0.220888         1.882329         0.598222
 O         0.336724         1.970553         1.981866
 C         1.433807         0.995312         1.832374
 C         2.583123         1.940665         1.179590
 C         1.638222         1.863041        -0.016405
 O         1.657915         2.480323        -1.205172
 C         1.047949         0.495828         0.433763
 C         1.006018        -0.856553        -0.134433
 H        -1.772126         1.722842         0.351731
 H        -1.076092         3.349748         0.201202
 H        -1.005843         2.454866        -1.111607
 H         1.660007         0.426317         2.740322
 H         2.679153         2.917524         1.613827
 H         3.521777         1.371689         1.120893
 H         2.376584         2.293172        -1.848803
 H         0.626473        -1.570425         0.629124
 H         0.442845        -0.907456        -1.109013
 H         1.999290        -1.273608        -0.438365
