19
Iteration:  3424charge 0 multiplicity 1
 C        -0.957825         2.444573        -0.071105
 C         0.170309         1.790650         0.657369
 O         0.353889         1.869064         2.119716
 C         1.535004         1.020265         1.833840
 C         2.493834         2.076708         1.099011
 C         1.591860         1.852614         0.014106
 O         1.741067         2.365073        -1.252030
 C         0.964480         0.574852         0.404266
 C         0.960581        -0.835695        -0.192642
 H        -1.937716         1.955427         0.346293
 H        -0.921998         3.538424        -0.038957
 H        -0.818725         2.327075        -1.136630
 H         1.940198         0.364919         2.596381
 H         2.501813         3.056432         1.700547
 H         3.524224         1.640604         1.019363
 H         2.679675         2.427946        -1.480585
 H         0.607729        -1.529243         0.694012
 H         0.543677        -1.006164        -1.174129
 H         1.946368        -1.242331        -0.364131
