19
Iteration:  1982charge 0 multiplicity 1
 C        -1.047371         2.278305        -0.070168
 C         0.185451         1.782318         0.632498
 O         0.360034         1.905337         2.100662
 C         1.539608         1.115761         1.896677
 C         2.556110         2.078037         1.184754
 C         1.603063         1.907549         0.074040
 O         1.768803         2.297058        -1.327402
 C         1.072894         0.547152         0.505649
 C         0.880193        -0.681358        -0.273530
 H        -1.966431         1.936002         0.291990
 H        -1.066919         3.377958        -0.232549
 H        -0.960737         1.843374        -1.116599
 H         1.846105         0.549110         2.755393
 H         2.776608         3.026554         1.632845
 H         3.459738         1.504397         0.832247
 H         2.421376         1.675147        -1.653066
 H        -0.020100        -1.185313         0.084105
 H         0.863834        -0.526874        -1.309092
 H         1.796193        -1.400280        -0.067929
