19
Iteration:  2682
 C        -1.020460         2.329339        -0.098865
 C         0.129633         1.798234         0.573568
 O         0.337991         1.928971         2.112410
 C         1.555178         1.094471         1.861439
 C         2.565130         1.940090         1.215642
 C         1.568913         1.956850         0.055058
 O         1.691297         2.381127        -1.286764
 C         0.984713         0.587177         0.451461
 C         1.087456        -0.819203        -0.247539
 H        -1.861294         1.528306        -0.059543
 H        -1.376455         3.259449         0.406116
 H        -0.725937         2.486100        -1.187883
 H         1.553500         0.361366         2.791117
 H         2.810343         2.910830         1.653712
 H         3.482227         1.362016         0.956636
 H         2.618900         2.443128        -1.507044
 H         0.577013        -1.524316         0.457299
 H         0.579167        -0.785082        -1.248747
 H         2.111740        -1.273467        -0.217666
