19
Iteration:  4989
 C        -1.055657         2.453117         0.089126
 C         0.205093         1.779663         0.600746
 O         0.391427         1.874115         2.128834
 C         1.587860         0.952711         1.878174
 C         2.555391         1.894827         1.212145
 C         1.573599         1.882402        -0.089395
 O         1.762269         2.318442        -1.352058
 C         1.083587         0.596153         0.415612
 C         0.902889        -0.679263        -0.285458
 H        -2.008669         2.085363         0.584820
 H        -1.017566         3.561240         0.287201
 H        -1.063046         2.343554        -1.020668
 H         1.627648         0.334561         2.760593
 H         2.472087         2.809354         1.835947
 H         3.554078         1.549182         0.978550
 H         1.743514         3.302952        -1.415789
 H         0.396447        -1.370299         0.263425
 H         0.415321        -0.624331        -1.223581
 H         1.886732        -1.269916        -0.352141
