19
Iteration:  3649
 C        -1.137066         2.455100        -0.030784
 C         0.234094         1.794314         0.490449
 O         0.400225         1.976785         1.904911
 C         1.534165         1.027309         1.900913
 C         2.579940         1.855294         1.241929
 C         1.668721         1.822382         0.025190
 O         1.634416         2.529740        -1.224506
 C         1.021303         0.533296         0.416113
 C         1.025141        -0.863774        -0.116546
 H        -2.078435         1.862847         0.186220
 H        -1.407860         3.310068         0.488576
 H        -0.963172         2.309031        -1.171528
 H         1.531077         0.456913         2.796818
 H         2.818605         2.769096         1.776188
 H         3.568479         1.394713         0.952253
 H         2.541629         2.376388        -1.493300
 H         0.576087        -1.443835         0.610287
 H         0.334800        -1.025754        -0.938900
 H         2.098876        -1.224716        -0.245380
