19
Iteration:  2848
 C        -0.920077         2.209828        -0.220124
 C         0.227618         1.846101         0.604967
 O         0.329200         1.832736         2.052470
 C         1.527715         1.026806         1.864886
 C         2.662820         1.958462         1.170416
 C         1.584650         2.037989         0.034583
 O         1.688941         2.573855        -1.192462
 C         0.979016         0.569955         0.420869
 C         0.887260        -0.777537        -0.105275
 H        -1.735836         1.462756        -0.032144
 H        -1.230753         3.237964        -0.047426
 H        -0.834118         2.203544        -1.342933
 H         1.743311         0.443261         2.714719
 H         3.021688         2.711941         1.795717
 H         3.453532         1.255092         0.955278
 H         2.032783         1.820532        -1.699948
 H         0.428497        -1.397614         0.698049
 H         0.256943        -0.987444        -0.962977
 H         1.875411        -1.330418        -0.097876
