19
Iteration:     3
 C        -1.027724         2.276822        -0.056684
 C         0.231357         1.806597         0.608702
 O         0.347555         1.909463         2.003855
 C         1.535760         1.091655         1.887775
 C         2.561881         2.043260         1.195924
 C         1.615294         1.915571         0.003944
 O         1.778009         2.371272        -1.291106
 C         1.039079         0.564174         0.471725
 C         0.886846        -0.784806        -0.154526
 H        -1.967289         1.735914         0.262446
 H        -1.270587         3.359868         0.165409
 H        -0.965493         2.132285        -1.196243
 H         1.746549         0.589297         2.742884
 H         2.708327         2.979480         1.694356
 H         3.473690         1.510380         1.054649
 H         2.524658         1.875857        -1.707089
 H         0.059422        -1.347391         0.449813
 H         0.476509        -0.648392        -1.161143
 H         1.789705        -1.266457        -0.209921
