19
Iteration:  4692charge 0 multiplicity 1
 C        -1.094868         2.288413         0.018532
 C         0.260614         1.838006         0.708327
 O         0.396863         1.794484         2.120732
 C         1.596182         1.060452         1.865111
 C         2.579526         2.070025         1.191811
 C         1.621146         1.989312         0.014771
 O         1.934954         2.257833        -1.301610
 C         1.066308         0.601736         0.313430
 C         0.630439        -0.722398        -0.297747
 H        -1.894061         1.758297         0.480326
 H        -1.389939         3.234260         0.336031
 H        -1.044398         2.053040        -1.040172
 H         1.799622         0.393607         2.763933
 H         2.723380         3.039438         1.598149
 H         3.594461         1.795203         0.903328
 H         2.126373         3.177783        -1.512862
 H        -0.112681        -1.124950         0.337458
 H         0.215619        -0.751446        -1.324828
 H         1.465548        -1.558093        -0.435167
