19
Iteration:    65charge 0 multiplicity 1
 C        -1.007316         2.325715        -0.017118
 C         0.203035         1.810364         0.639695
 O         0.295218         1.899330         2.059818
 C         1.573666         1.179483         1.924982
 C         2.534581         2.084034         1.147886
 C         1.550377         1.944014         0.013353
 O         1.829536         2.277496        -1.279703
 C         0.976568         0.508119         0.427009
 C         0.906304        -0.792847        -0.248511
 H        -1.887604         1.898985         0.368314
 H        -0.944223         3.359531         0.157150
 H        -0.905727         2.319492        -1.035977
 H         1.739888         0.464592         2.822625
 H         2.701595         3.105835         1.625866
 H         3.537140         1.601421         0.955030
 H         2.416070         1.535057        -1.603731
 H         0.651714        -1.614449         0.266224
 H         0.450788        -0.755119        -1.265855
 H         2.083180        -1.080205        -0.434886
