19
Iteration:   593charge 0 multiplicity 1
 C        -1.022449         2.268830        -0.031340
 C         0.213924         1.789242         0.636565
 O         0.334063         1.847922         2.046059
 C         1.550880         1.177675         1.938896
 C         2.474922         2.120783         1.219569
 C         1.683483         1.891393        -0.011527
 O         1.897766         2.387459        -1.333980
 C         1.083919         0.542611         0.500595
 C         0.782169        -0.835761        -0.291738
 H        -1.916489         1.611038         0.253763
 H        -1.439068         3.268464         0.258180
 H        -0.976644         2.167692        -1.096530
 H         1.846427         0.765619         2.962023
 H         2.247665         3.052502         1.654965
 H         3.519884         1.930279         1.126112
 H         2.481233         1.803015        -1.837533
 H         0.136027        -1.594651         0.451708
 H         0.146825        -0.594017        -1.153630
 H         1.744222        -1.263689        -0.562813
