19
Iteration:  2470charge 0 multiplicity 1
 C        -1.131260         2.361370         0.070084
 C         0.136892         1.819180         0.588767
 O         0.279801         1.752895         2.050867
 C         1.569063         1.016721         1.768253
 C         2.491367         2.078331         1.264008
 C         1.600836         2.046987        -0.013805
 O         1.935768         2.444898        -1.371813
 C         1.027125         0.589022         0.335265
 C         1.019697        -0.831219        -0.063089
 H        -2.102278         1.913223         0.159273
 H        -1.418364         3.416626         0.396373
 H        -0.958906         2.474608        -1.077967
 H         1.874851         0.312655         2.555564
 H         2.711717         2.886607         1.927285
 H         3.347812         1.514830         0.954161
 H         2.019417         1.548116        -1.706275
 H         0.730646        -1.477037         0.796352
 H         0.501471        -1.186753        -1.064235
 H         1.974897        -1.156853        -0.222603
