19
Iteration:  2923charge 0 multiplicity 1
 C        -1.204188         2.310621         0.109164
 C         0.109655         1.725604         0.567134
 O         0.335797         1.901985         2.071229
 C         1.508719         1.089655         1.944565
 C         2.458915         2.023195         1.218607
 C         1.649036         1.911799        -0.031555
 O         1.948591         2.259326        -1.376917
 C         1.077718         0.588060         0.436176
 C         0.973771        -0.681844        -0.269981
 H        -2.214785         1.947545         0.476329
 H        -1.139207         3.350782         0.443905
 H        -1.257187         2.466424        -1.023127
 H         1.882398         0.473254         2.831456
 H         2.651785         3.057912         1.635374
 H         3.525997         1.689739         1.052597
 H         2.924232         2.182179        -1.451239
 H         0.090183        -1.371155        -0.045008
 H         0.872524        -0.421944        -1.471168
 H         1.922296        -1.199509        -0.266868
