19
Iteration:  3174
 C        -0.969233         2.325598         0.005806
 C         0.140288         1.733700         0.625015
 O         0.343664         1.870486         2.048377
 C         1.460115         1.120035         1.903097
 C         2.494149         2.117114         1.201085
 C         1.638208         1.853961         0.022967
 O         1.807348         2.245384        -1.318163
 C         1.071299         0.554713         0.481198
 C         0.910447        -0.655460        -0.305155
 H        -1.863092         2.030176         0.602899
 H        -0.789276         3.348513         0.147897
 H        -1.157884         2.079149        -0.982456
 H         1.879634         0.709350         2.735395
 H         2.483158         3.098122         1.714260
 H         3.467998         1.638097         1.081050
 H         2.720424         2.004088        -1.634891
 H         0.021589        -1.244597        -0.010659
 H         0.700585        -0.329623        -1.367954
 H         1.866856        -1.420655        -0.195371
