19
Iteration:  2883
 C        -1.035689         2.372425        -0.094144
 C         0.216137         1.769657         0.619973
 O         0.316813         1.815343         2.071473
 C         1.541002         1.108701         1.892964
 C         2.539658         2.097985         1.254676
 C         1.649294         1.894973        -0.010662
 O         1.756693         2.398138        -1.283829
 C         1.069444         0.547945         0.445725
 C         0.899651        -0.850754        -0.259627
 H        -1.930867         1.841466         0.182872
 H        -1.202758         3.329002         0.464989
 H        -0.885852         2.521400        -1.126066
 H         1.720464         0.565261         2.751147
 H         2.519810         3.084448         1.693695
 H         3.520798         1.688293         1.182897
 H         2.524148         2.118639        -1.819577
 H         0.288071        -1.360397         0.443000
 H         0.465547        -0.801691        -1.156891
 H         1.941505        -1.327635        -0.423359
