19
Iteration:  3518
 C        -1.167289         2.102751        -0.015169
 C         0.140391         1.808650         0.672938
 O         0.412867         1.983129         2.059998
 C         1.534463         1.080154         1.860591
 C         2.595100         1.916019         1.091243
 C         1.604380         2.011499        -0.019024
 O         1.932203         2.484310        -1.260668
 C         0.986830         0.588716         0.485018
 C         0.809914        -0.741776        -0.214159
 H        -1.815294         1.185149         0.100513
 H        -1.737177         3.121384         0.005848
 H        -0.896033         2.117570        -1.134375
 H         1.843840         0.613704         2.756004
 H         3.068538         2.781095         1.604936
 H         3.366538         1.104130         0.790971
 H         2.885423         2.187640        -1.259987
 H         0.015132        -1.203772         0.261039
 H         0.726400        -0.746790        -1.292294
 H         1.669817        -1.448122         0.025240
