19
Iteration:  2209charge 0 multiplicity 1
 C        -1.127223         2.367018         0.027484
 C         0.154929         1.866330         0.646840
 O         0.270525         1.745377         2.121553
 C         1.521835         1.115930         1.835106
 C         2.505026         2.114496         1.177125
 C         1.621389         1.949349        -0.003785
 O         1.868982         2.335220        -1.363139
 C         1.111948         0.586373         0.422615
 C         0.984853        -0.831825        -0.188523
 H        -1.939974         2.005734         0.572598
 H        -1.122762         3.436976         0.209365
 H        -1.289499         2.196584        -1.121702
 H         1.857523         0.328749         2.484763
 H         2.640552         3.172277         1.545880
 H         3.483270         1.658778         0.922044
 H         2.662784         1.888016        -1.760565
 H         0.134109        -1.375925         0.281539
 H         0.816813        -0.900744        -1.332952
 H         1.942309        -1.344171         0.045947
