19
Iteration:  2383charge 0 multiplicity 1
 C        -1.075521         2.119961        -0.114607
 C         0.195428         1.843494         0.664701
 O         0.294689         1.750316         2.137960
 C         1.638496         1.085120         1.829727
 C         2.597365         2.080827         1.210339
 C         1.655663         1.959170         0.008772
 O         1.786020         2.373034        -1.317768
 C         1.065431         0.637099         0.431207
 C         0.778437        -0.618859        -0.199058
 H        -1.958245         1.608565         0.233480
 H        -1.261063         3.194032        -0.332030
 H        -0.775453         1.609279        -1.130002
 H         1.990764         0.378170         2.595628
 H         2.543887         3.022846         1.796258
 H         3.685528         1.854008         1.050625
 H         2.773542         2.387652        -1.359711
 H        -0.108473        -1.086549         0.313885
 H         0.723442        -0.581192        -1.389740
 H         1.520932        -1.273968         0.110091
