19
Iteration:  4639charge 0 multiplicity 1
 C        -1.034355         2.304329         0.001275
 C         0.248879         1.821910         0.597477
 O         0.389254         1.890450         2.030503
 C         1.596937         1.034876         1.805521
 C         2.643351         1.962267         1.209800
 C         1.658937         1.957475         0.016081
 O         1.835338         2.427414        -1.239183
 C         0.969746         0.551722         0.356606
 C         0.711180        -0.837291        -0.174909
 H        -1.868513         1.780909         0.448945
 H        -1.291164         3.364284         0.243509
 H        -1.073207         2.282556        -1.150258
 H         1.914338         0.434180         2.736556
 H         2.982042         2.832587         1.832739
 H         3.455178         1.325884         0.822575
 H         1.707740         3.377008        -1.331442
 H         0.112168        -1.556591         0.456406
 H        -0.026795        -0.746012        -0.997189
 H         1.661576        -1.357394        -0.485926
