19
Iteration:   351charge 0 multiplicity 1
 C        -0.942817         2.243586        -0.104253
 C         0.262802         1.872047         0.610914
 O         0.330518         1.871287         2.021213
 C         1.542023         1.042380         1.961868
 C         2.484073         2.050520         1.165424
 C         1.613094         1.935999        -0.021961
 O         1.711171         2.397754        -1.314548
 C         1.128666         0.555685         0.534514
 C         0.832491        -0.776328        -0.152038
 H        -1.821056         1.598142         0.098108
 H        -1.243293         3.259873         0.151017
 H        -0.858260         2.289388        -1.224957
 H         1.927842         0.563293         2.897575
 H         2.673966         3.081666         1.671424
 H         3.469523         1.478126         1.120004
 H         2.436195         1.978277        -1.864486
 H        -0.071333        -1.242930         0.255045
 H         0.652628        -0.621627        -1.203848
 H         1.813111        -1.404244        -0.156302
