19
Iteration:  1144charge 0 multiplicity 1
 C        -1.155375         2.244553         0.033239
 C         0.229134         1.828315         0.527685
 O         0.312605         1.865379         1.962753
 C         1.532535         1.084593         1.865703
 C         2.461971         2.067404         1.197466
 C         1.622912         1.846656        -0.051945
 O         1.945716         2.386303        -1.257789
 C         1.147072         0.594297         0.460569
 C         0.837882        -0.720127        -0.128911
 H        -1.860434         1.637128         0.684119
 H        -1.233379         3.289670         0.411597
 H        -1.464796         2.453062        -0.981778
 H         1.748774         0.388748         2.733117
 H         2.520664         3.040709         1.702586
 H         3.524081         1.624175         1.109400
 H         2.530040         1.874287        -1.856593
 H         0.407502        -1.324985         0.678998
 H         0.499669        -0.629069        -1.116269
 H         1.778430        -1.357985        -0.514259
