19
Iteration:  3348
 C        -1.207664         2.135848        -0.038808
 C         0.215713         1.834972         0.607085
 O         0.455760         1.942977         2.081131
 C         1.591491         1.073565         1.929532
 C         2.496353         1.970858         1.244606
 C         1.586577         1.990025         0.047967
 O         1.978670         2.352497        -1.339902
 C         1.008279         0.595966         0.436811
 C         0.821520        -0.671439        -0.274118
 H        -2.102118         1.542159         0.565438
 H        -1.540555         3.213888         0.040394
 H        -1.160798         2.013887        -1.128713
 H         1.793877         0.527580         2.823079
 H         2.693907         2.950464         1.712988
 H         3.512894         1.712115         1.026777
 H         2.149003         1.486933        -1.741897
 H        -0.115414        -1.218442        -0.069924
 H         0.785337        -0.423276        -1.305183
 H         1.591572        -1.315292        -0.234760
