19
Iteration:  3858
 C        -1.000134         2.510195        -0.001802
 C         0.147660         1.782451         0.585834
 O         0.349557         1.762651         2.062225
 C         1.576840         1.030021         1.812113
 C         2.496785         2.111305         1.166290
 C         1.609494         1.883344        -0.027424
 O         1.879574         2.358364        -1.259157
 C         0.991773         0.547938         0.446531
 C         0.933314        -0.836506        -0.159925
 H        -2.005697         2.031270         0.340494
 H        -1.023366         3.491551         0.407605
 H        -0.847868         2.588132        -1.083379
 H         1.958312         0.446031         2.678840
 H         2.604412         3.062543         1.649085
 H         3.479994         1.737121         0.943187
 H         0.998157         2.404016        -1.688175
 H         0.405482        -1.657275         0.330507
 H         0.393849        -0.900371        -1.121405
 H         2.002094        -1.122900        -0.183683
