19
Iteration:  3788charge 0 multiplicity 1
 C        -1.057636         2.113650        -0.045860
 C         0.202863         1.836869         0.643406
 O         0.438985         1.961680         2.078086
 C         1.517336         1.052131         1.842581
 C         2.508231         1.964293         1.096937
 C         1.511032         1.977541         0.041516
 O         1.888090         2.376620        -1.229967
 C         1.032168         0.588428         0.425964
 C         0.867186        -0.710891        -0.197828
 H        -1.918738         1.691959         0.444938
 H        -1.437002         3.194824         0.043709
 H        -1.037115         1.913633        -1.162590
 H         1.674970         0.367364         2.660560
 H         2.941765         2.888016         1.481846
 H         3.287681         1.239136         0.759333
 H         2.717620         2.854827        -1.251848
 H         0.071180        -1.414680         0.123674
 H         0.408098        -0.484883        -1.149854
 H         1.782182        -1.155713        -0.214258
