19
Iteration:   677charge 0 multiplicity 1
 C        -1.139555         2.239646        -0.066514
 C         0.165397         1.773117         0.576351
 O         0.352552         1.952227         1.950819
 C         1.571118         1.103780         1.882215
 C         2.519605         1.976290         1.168525
 C         1.592159         1.869986        -0.041796
 O         1.843189         2.533080        -1.202476
 C         1.066225         0.524037         0.501010
 C         0.919670        -0.793580        -0.100902
 H        -1.981247         1.693818         0.462410
 H        -1.099695         3.323680         0.020010
 H        -1.120499         2.037980        -1.133919
 H         1.714439         0.346033         2.783289
 H         2.971017         2.971581         1.589348
 H         3.426929         1.424076         0.774334
 H         2.523661         2.098275        -1.758235
 H         0.178381        -1.326582         0.383121
 H         0.774983        -0.815807        -1.192461
 H         1.835629        -1.457945         0.054757
