19
Iteration:   548charge 0 multiplicity 1
 C        -1.162671         2.272210         0.035665
 C         0.215072         1.917092         0.490924
 O         0.275673         1.867644         2.016823
 C         1.520421         1.040362         1.892797
 C         2.605868         2.003517         1.224759
 C         1.622365         1.993487        -0.012000
 O         1.863857         2.392356        -1.312498
 C         1.037299         0.635220         0.368187
 C         0.954212        -0.836065        -0.117253
 H        -2.063473         1.619788         0.229448
 H        -1.603444         3.218961         0.391510
 H        -1.128671         2.335769        -1.061573
 H         1.847917         0.408665         2.855195
 H         3.095925         2.836109         1.629662
 H         3.288018         1.227325         0.974434
 H         2.673004         1.899469        -1.572679
 H         0.153550        -1.527567         0.614098
 H         0.771591        -0.954954        -1.172257
 H         1.914316        -1.154734         0.220233
