19
Iteration:  3977
 C        -1.213604         2.261517         0.012270
 C         0.191015         1.812960         0.630355
 O         0.400527         1.871921         2.037772
 C         1.620676         1.052782         1.861618
 C         2.629567         2.015949         1.233940
 C         1.637335         1.989928         0.002432
 O         2.021963         2.402686        -1.298004
 C         1.058043         0.513330         0.405009
 C         0.704076        -0.745626        -0.238724
 H        -1.992164         1.774804         0.694239
 H        -1.297655         3.283586         0.170779
 H        -1.281726         1.934338        -1.032297
 H         1.734995         0.448404         2.778805
 H         2.819883         2.876714         1.855896
 H         3.540375         1.493859         0.982069
 H         1.301312         2.598380        -1.906811
 H        -0.105250        -1.290062         0.317342
 H         0.207359        -0.499046        -1.223897
 H         1.501696        -1.454688        -0.374526
