19
Iteration:  3765
 C        -1.120324         2.052488        -0.101420
 C         0.203388         1.825140         0.682445
 O         0.326410         1.945531         2.101351
 C         1.622919         1.083057         1.938136
 C         2.686427         2.024258         1.198194
 C         1.633580         1.900888         0.085770
 O         1.828743         2.404595        -1.387664
 C         1.039759         0.562648         0.531295
 C         0.748593        -0.654859        -0.328402
 H        -2.022805         1.644669         0.264510
 H        -1.520787         3.162285        -0.117834
 H        -0.971204         1.822312        -1.150132
 H         1.862363         0.470270         2.822753
 H         2.857096         2.941382         1.790872
 H         3.613020         1.520702         0.867345
 H         2.796789         2.515385        -1.414329
 H        -0.139669        -1.241650        -0.009023
 H         0.405952        -0.360906        -1.291884
 H         1.560476        -1.229259        -0.267762
