19
Iteration:  4144charge 0 multiplicity 1
 C        -1.111765         2.356885         0.144572
 C         0.196709         1.780930         0.601168
 O         0.375261         1.921521         2.122937
 C         1.505613         1.058135         1.918278
 C         2.567963         1.958605         1.220689
 C         1.685516         1.919389        -0.052659
 O         1.986019         2.239122        -1.364352
 C         1.087366         0.569157         0.444774
 C         0.768882        -0.635724        -0.356137
 H        -1.957160         1.742669         0.530658
 H        -1.308030         3.375524         0.529574
 H        -1.143105         2.246324        -0.946322
 H         1.671893         0.449733         2.817807
 H         2.806571         2.920889         1.640404
 H         3.452743         1.470983         0.854962
 H         1.170265         2.521116        -1.777977
 H        -0.154999        -1.245524         0.020999
 H         0.387565        -0.395233        -1.440446
 H         1.602668        -1.380711        -0.430969
