19
Iteration:  1553
 C        -1.074280         2.241339        -0.033448
 C         0.186239         1.833296         0.660355
 O         0.328339         1.848862         2.057823
 C         1.567338         0.997129         1.927810
 C         2.500720         2.119218         1.202735
 C         1.638648         1.985040        -0.036584
 O         1.911004         2.277358        -1.367764
 C         1.144430         0.654403         0.488490
 C         0.761379        -0.670725        -0.218575
 H        -2.035618         1.838767         0.381786
 H        -1.224083         3.297191        -0.063848
 H        -0.938247         1.860416        -1.167456
 H         1.708727         0.319866         2.707454
 H         2.672081         3.042483         1.806621
 H         3.511331         1.616549         1.119085
 H         2.474154         1.549702        -1.718039
 H         0.084554        -1.271366         0.443175
 H         0.174944        -0.502019        -1.104766
 H         1.747903        -1.314529        -0.352896
