19
Iteration:  1980
 C        -1.034282         2.287023        -0.063991
 C         0.186465         1.773382         0.620803
 O         0.374936         1.897028         2.111150
 C         1.527069         1.131838         1.899357
 C         2.533484         2.097999         1.187998
 C         1.617848         1.881470         0.057434
 O         1.775548         2.296331        -1.324721
 C         1.070343         0.532704         0.508493
 C         0.874729        -0.663695        -0.280375
 H        -1.970929         1.945644         0.362333
 H        -1.088009         3.325088        -0.218608
 H        -0.976402         1.823312        -1.167899
 H         1.858398         0.523668         2.847891
 H         2.740307         3.055768         1.613879
 H         3.403687         1.537059         0.865941
 H         2.421818         1.691264        -1.728621
 H        -0.030973        -1.174513         0.064202
 H         0.827277        -0.551538        -1.317154
 H         1.791151        -1.386623        -0.072944
