19
Iteration:  3484charge 0 multiplicity 1
 C        -1.012400         2.322367        -0.065024
 C         0.269174         1.818362         0.581791
 O         0.353325         1.819090         1.979669
 C         1.545038         1.020160         1.839711
 C         2.558569         2.047866         1.174537
 C         1.677763         1.929315         0.020185
 O         1.741132         2.504160        -1.282355
 C         1.029318         0.543527         0.428912
 C         0.823179        -0.797268        -0.049030
 H        -1.893225         1.595865         0.105416
 H        -1.442017         3.298580         0.400754
 H        -0.835859         2.297170        -1.203109
 H         1.824223         0.378713         2.702534
 H         2.635432         2.917177         1.848494
 H         3.585696         1.590349         1.204392
 H         2.314904         1.953461        -1.883233
 H         0.107176        -1.262909         0.508501
 H         0.408624        -0.825755        -1.064431
 H         1.790556        -1.351776         0.028014
