19
Iteration:  1874charge 0 multiplicity 1
 C        -1.083462         2.233438        -0.165037
 C         0.221720         1.835146         0.560283
 O         0.404666         2.059829         1.889111
 C         1.551428         1.006576         1.905063
 C         2.601947         1.876880         1.155635
 C         1.571876         1.860848         0.007437
 O         1.756905         2.620212        -1.171660
 C         1.000556         0.523679         0.542828
 C         0.908613        -0.863337        -0.015994
 H        -1.876547         1.562401         0.020733
 H        -1.370755         3.271329         0.270486
 H        -0.883968         2.313733        -1.289388
 H         1.626511         0.326555         2.710722
 H         3.088979         2.779058         1.587149
 H         3.420957         1.166978         0.730704
 H         2.324549         2.126905        -1.770696
 H         0.313777        -1.585260         0.559253
 H         0.363613        -0.711489        -0.993778
 H         1.828727        -1.424114        -0.202111
