19
Iteration:  4745
 C        -1.129007         2.328432         0.072886
 C         0.231768         1.946000         0.720173
 O         0.402798         2.019935         2.079796
 C         1.511720         1.116420         1.850490
 C         2.624724         1.821082         1.168659
 C         1.631885         1.899465         0.022131
 O         1.789335         2.284003        -1.246150
 C         1.019351         0.511112         0.463321
 C         0.907391        -0.735764        -0.435243
 H        -1.852814         1.487622         0.265161
 H        -1.366457         3.427789         0.324968
 H        -0.972193         2.149689        -1.036037
 H         1.712657         0.417364         2.721071
 H         3.213641         2.688412         1.485651
 H         3.376057         1.022211         0.858362
 H         1.167440         2.993007        -1.442225
 H         0.147556        -1.286425        -0.015577
 H         0.755211        -0.585851        -1.523084
 H         1.869879        -1.445192        -0.336765
