19
Iteration:  3878charge 0 multiplicity 1
 C        -1.031549         2.483910        -0.076917
 C         0.140104         1.765932         0.717330
 O         0.341411         1.862808         2.210935
 C         1.542039         1.057068         1.932425
 C         2.511929         1.988407         1.148678
 C         1.574820         1.880270        -0.026464
 O         1.837793         2.437949        -1.372289
 C         1.111938         0.544866         0.436767
 C         0.959356        -0.873336        -0.272130
 H        -1.913595         1.906242         0.245493
 H        -1.052251         3.478489         0.263704
 H        -0.587481         2.580724        -1.126267
 H         1.881026         0.402243         2.731608
 H         2.455163         2.985683         1.528811
 H         3.570728         1.730805         1.091237
 H         1.400968         1.887020        -2.017441
 H         0.150520        -1.477293         0.133511
 H         0.452707        -0.672639        -1.211345
 H         1.769666        -1.429939        -0.384664
