19
Iteration:  1772
 C        -1.066099         2.179742        -0.014579
 C         0.223273         1.809249         0.593189
 O         0.337260         2.054076         2.001573
 C         1.495940         1.088741         1.883167
 C         2.582489         1.948531         1.223587
 C         1.574625         1.894751        -0.009942
 O         1.899161         2.362126        -1.293900
 C         1.027753         0.547632         0.553547
 C         0.845477        -0.664926        -0.244057
 H        -1.682631         1.510673         0.591779
 H        -1.217016         3.184437         0.306832
 H        -1.345434         1.963291        -1.105350
 H         1.777246         0.565965         2.825904
 H         2.783634         3.006129         1.507270
 H         3.528801         1.299723         1.018509
 H         2.117189         1.595775        -1.880132
 H         0.168667        -1.437926         0.131758
 H         0.656750        -0.475030        -1.239234
 H         1.923660        -1.137074        -0.315869
