19
Iteration:   958
 C        -1.069325         2.239438        -0.025380
 C         0.204341         1.844686         0.672472
 O         0.305448         1.994973         2.075101
 C         1.483999         1.059595         1.902923
 C         2.464515         1.980355         1.189086
 C         1.626019         1.950658        -0.017854
 O         1.836932         2.389923        -1.321359
 C         1.126436         0.528192         0.474309
 C         0.970912        -0.831014        -0.273416
 H        -1.959095         1.595002         0.326502
 H        -1.371980         3.258345         0.354489
 H        -0.931786         2.362330        -1.135122
 H         1.843258         0.669420         2.845203
 H         2.593000         3.008671         1.509181
 H         3.503660         1.546070         1.174250
 H         2.536240         1.888310        -1.778435
 H         0.331567        -1.398766         0.413383
 H         0.448582        -0.572785        -1.284606
 H         1.739266        -1.404653        -0.566673
