19
Iteration:  4138charge 0 multiplicity 1
 C        -1.104787         2.337094         0.169104
 C         0.166099         1.811704         0.713300
 O         0.335671         1.919148         2.075930
 C         1.527150         1.062475         1.873269
 C         2.621744         1.979456         1.209715
 C         1.683163         1.875222         0.018945
 O         2.009629         2.229925        -1.407200
 C         1.047316         0.567252         0.395241
 C         0.783227        -0.669119        -0.368048
 H        -2.023334         1.818035         0.480799
 H        -1.426089         3.413843         0.353086
 H        -1.186377         2.489712        -0.947137
 H         1.773338         0.492759         2.765529
 H         2.719465         2.983305         1.718416
 H         3.619644         1.457962         1.040118
 H         1.083199         2.516337        -1.596195
 H        -0.097823        -1.102911        -0.009588
 H         0.390223        -0.361089        -1.283161
 H         1.648283        -1.302644        -0.379359
