19
Iteration:  3012charge 0 multiplicity 1
 C        -0.902187         2.229125        -0.110362
 C         0.249132         1.784662         0.573421
 O         0.299226         1.822107         2.009664
 C         1.564460         1.085991         1.928372
 C         2.553865         2.043961         1.163115
 C         1.600220         1.903036         0.036784
 O         1.712876         2.467154        -1.202717
 C         1.076960         0.571602         0.413358
 C         0.803949        -0.749268        -0.136674
 H        -1.882672         1.743165         0.184566
 H        -0.864773         3.356997        -0.010927
 H        -0.786123         2.031651        -1.152061
 H         1.876615         0.504890         2.708819
 H         2.662359         3.084245         1.537780
 H         3.559927         1.625580         0.850886
 H         2.642532         2.277673        -1.487283
 H         0.093432        -1.315281         0.478376
 H         0.160154        -0.592137        -1.113798
 H         1.676892        -1.405010        -0.337722
