19
Iteration:  3142charge 0 multiplicity 1
 C        -1.062383         2.250708        -0.150951
 C         0.180904         1.881775         0.648979
 O         0.374285         1.872742         2.099672
 C         1.545286         1.087300         1.937836
 C         2.634535         2.001852         1.283535
 C         1.533068         1.950454         0.045457
 O         1.745427         2.264025        -1.339086
 C         1.052406         0.594528         0.536574
 C         0.910810        -0.642096        -0.316449
 H        -1.915822         1.708013         0.255689
 H        -1.251179         3.270979        -0.139675
 H        -0.898132         2.001333        -1.131956
 H         1.859120         0.659582         2.803781
 H         2.867699         2.916945         1.895735
 H         3.494075         1.388507         0.917454
 H         2.298220         1.631733        -1.789727
 H         0.011897        -1.216111        -0.117105
 H         1.005300        -0.299833        -1.379213
 H         1.767557        -1.372288        -0.314252
