19
Iteration:   502
 C        -0.991991         2.331061        -0.189527
 C         0.194707         1.800686         0.591583
 O         0.396473         1.970289         2.048467
 C         1.540967         1.121021         1.916135
 C         2.563148         2.004862         1.150111
 C         1.554590         1.916939         0.046272
 O         1.696063         2.443288        -1.190976
 C         0.992162         0.474275         0.515708
 C         1.010142        -0.876570        -0.233119
 H        -1.875296         1.850318         0.205913
 H        -1.283147         3.313322         0.131257
 H        -0.966196         2.204717        -1.308943
 H         1.696207         0.552463         2.909762
 H         2.734804         2.935319         1.633824
 H         3.410887         1.456468         0.868065
 H         2.456643         1.959327        -1.639284
 H         0.006265        -1.529078         0.170619
 H         0.878132        -0.714501        -1.324987
 H         1.788435        -1.535983         0.054365
