19
Iteration:  1499charge 0 multiplicity 1
 C        -0.962535         2.319502        -0.134398
 C         0.211175         1.797734         0.543436
 O         0.359568         1.938920         1.966553
 C         1.566135         1.069748         1.907858
 C         2.584099         1.968493         1.231505
 C         1.601915         1.901405        -0.017787
 O         1.659593         2.453523        -1.237189
 C         1.089106         0.510704         0.492085
 C         0.858332        -0.809998        -0.130983
 H        -1.837518         2.164697         0.501146
 H        -0.790899         3.370347        -0.100798
 H        -1.085637         1.962277        -1.258710
 H         1.701543         0.672075         2.874961
 H         2.692994         2.817148         1.920933
 H         3.590376         1.480494         1.160602
 H         2.534081         2.133449        -1.590217
 H         0.188769        -1.413680         0.530662
 H         0.274516        -0.681786        -1.079392
 H         1.736267        -1.502192        -0.351472
