19
Iteration:  4380charge 0 multiplicity 1
 C        -1.040840         2.373657         0.036262
 C         0.211120         1.905362         0.667548
 O         0.375425         1.807274         2.061259
 C         1.549329         1.031840         1.928801
 C         2.643650         1.989986         1.182887
 C         1.685814         1.940091        -0.047401
 O         1.815291         2.256492        -1.332686
 C         1.035913         0.599881         0.374917
 C         0.727419        -0.785836        -0.268426
 H        -1.963977         2.049344         0.524260
 H        -1.291581         3.448491         0.200414
 H        -1.054269         2.128812        -0.979604
 H         1.690991         0.389816         2.858299
 H         2.825492         2.993978         1.589133
 H         3.589550         1.532027         1.046939
 H         2.003970         3.216724        -1.477576
 H        -0.086778        -1.147644         0.371054
 H         0.455318        -0.615498        -1.284776
 H         1.731100        -1.319782        -0.023804
