19
Iteration:  4999charge 0 multiplicity 1
 C        -0.960677         2.409875         0.135133
 C         0.175435         1.748577         0.632238
 O         0.379342         1.959992         2.040199
 C         1.493600         0.978563         1.871271
 C         2.613408         1.896444         1.225476
 C         1.557770         1.965512         0.029957
 O         1.728939         2.327421        -1.361488
 C         1.020481         0.527018         0.403615
 C         0.943010        -0.746525        -0.340150
 H        -1.917998         2.031381         0.527012
 H        -0.792030         3.460064         0.468927
 H        -0.949552         2.330754        -0.973469
 H         1.686479         0.239802         2.631099
 H         2.899832         2.846250         1.705930
 H         3.561430         1.396365         1.018427
 H         1.563434         3.308499        -1.398869
 H         0.379661        -1.299508         0.411481
 H         0.400286        -0.734138        -1.254134
 H         2.011903        -1.170158        -0.509054
