19
Iteration:   237
 C        -1.034614         2.184464        -0.095369
 C         0.207272         1.862015         0.617666
 O         0.398016         2.044535         2.012169
 C         1.501084         1.143123         1.885713
 C         2.577585         1.912315         1.136527
 C         1.507934         1.949882        -0.039614
 O         1.843060         2.468850        -1.256263
 C         0.868984         0.514732         0.626466
 C         0.987091        -0.835222        -0.213041
 H        -1.841693         1.449169         0.352482
 H        -1.432619         3.225679         0.221908
 H        -0.800545         1.942125        -1.125818
 H         1.651536         0.518840         2.844268
 H         3.032339         2.736659         1.616586
 H         3.393051         1.261141         0.864922
 H         2.584092         1.883559        -1.546236
 H         0.512984        -1.825911         0.323625
 H         0.388940        -0.825461        -1.191977
 H         1.960643        -0.969590        -0.490742
