19
Iteration:  3583
 C        -1.011910         2.244372        -0.058897
 C         0.207668         1.781151         0.575987
 O         0.333026         1.814011         2.104338
 C         1.579698         1.046005         1.836338
 C         2.550267         2.163169         1.232072
 C         1.604990         1.992011         0.072061
 O         1.847851         2.288512        -1.286798
 C         1.082706         0.559526         0.492554
 C         0.764094        -0.650555        -0.296943
 H        -1.856882         1.759053         0.592603
 H        -1.174783         3.425883         0.031307
 H        -1.147664         1.918514        -1.198853
 H         1.991645         0.503490         2.656357
 H         2.614888         3.131541         1.716161
 H         3.620789         1.829318         1.087109
 H         2.249711         1.548675        -1.789497
 H         0.076029        -1.168808         0.235332
 H         0.451382        -0.496617        -1.323905
 H         1.646642        -1.351585        -0.339284
