19
Iteration:  3187
 C        -1.053921         2.389983         0.052752
 C         0.266361         1.729307         0.588217
 O         0.295824         1.931992         2.022375
 C         1.579704         1.044746         1.928340
 C         2.458119         2.075447         1.283796
 C         1.621598         1.872644        -0.062857
 O         1.823451         2.331723        -1.392145
 C         1.042745         0.515398         0.518059
 C         0.893708        -0.757729        -0.252038
 H        -1.923523         2.066550         0.576464
 H        -0.991648         3.456756         0.016752
 H        -1.125394         2.128864        -0.960112
 H         1.598193         0.379549         2.782827
 H         2.384850         3.113248         1.749518
 H         3.553374         1.767120         1.207790
 H         2.713353         2.061909        -1.618745
 H         0.156663        -1.459131         0.151656
 H         0.789672        -0.511371        -1.383358
 H         1.927027        -1.294411        -0.302340
