19
Iteration:  1604
 C        -1.085503         2.203471        -0.010771
 C         0.174616         1.755404         0.564110
 O         0.403487         2.118863         2.056953
 C         1.449125         1.121135         1.909940
 C         2.546802         1.842896         1.170537
 C         1.618440         1.868715        -0.037533
 O         1.867549         2.482440        -1.350042
 C         1.019284         0.543538         0.559771
 C         0.907180        -0.789429        -0.185403
 H        -1.789772         1.225307         0.075686
 H        -1.501157         3.121630         0.539127
 H        -1.101302         2.344422        -0.977226
 H         1.582572         0.405647         2.783849
 H         2.844614         2.869610         1.588637
 H         3.357597         1.230312         0.849410
 H         2.766455         2.085813        -1.614405
 H         0.024414        -1.302475         0.146050
 H         0.722145        -0.453839        -1.224240
 H         1.893519        -1.314392        -0.143388
