19
Iteration:  1976charge 0 multiplicity 1
 C        -1.007101         2.279159        -0.070029
 C         0.190114         1.761161         0.601862
 O         0.395413         1.882999         2.124986
 C         1.522044         1.145054         1.931517
 C         2.486015         2.129411         1.194593
 C         1.638466         1.834257        -0.003742
 O         1.789850         2.292276        -1.311502
 C         1.061910         0.526891         0.516008
 C         0.873316        -0.653845        -0.280640
 H        -1.961406         1.950014         0.520751
 H        -1.102255         3.396052        -0.179646
 H        -1.036925         1.871979        -1.058852
 H         1.829578         0.582552         2.858255
 H         2.658122         3.179138         1.595572
 H         3.418008         1.590571         0.998170
 H         2.407961         1.744718        -1.863447
 H        -0.055108        -1.189685         0.009476
 H         0.744597        -0.534423        -1.454797
 H         1.651505        -1.292738        -0.127484
