19
Iteration:  2647charge 0 multiplicity 1
 C        -1.048766         2.352790         0.024052
 C         0.182108         1.760772         0.548830
 O         0.267511         1.739426         2.006394
 C         1.555962         1.094101         1.868143
 C         2.476698         2.079557         1.172851
 C         1.579117         1.933889        -0.053536
 O         1.884667         2.427824        -1.316977
 C         1.046925         0.588335         0.417265
 C         0.981726        -0.805184        -0.060765
 H        -1.924514         1.749040         0.374814
 H        -1.167829         3.399289         0.546403
 H        -1.116647         2.493611        -1.039109
 H         1.866591         0.332428         2.515695
 H         2.492408         2.988743         1.683482
 H         3.462333         1.718255         0.976340
 H         2.831881         2.499137        -1.428326
 H         0.367381        -1.405048         0.661508
 H         0.284231        -0.902001        -1.027114
 H         1.876078        -1.235429        -0.321289
