19
Iteration:    51
 C        -1.005541         2.431049        -0.021009
 C         0.121288         1.726077         0.640270
 O         0.321240         1.802873         2.072538
 C         1.565858         1.119540         1.914863
 C         2.459787         2.152730         1.206415
 C         1.623061         1.842751        -0.014946
 O         1.856582         2.250837        -1.369027
 C         1.050347         0.604063         0.513240
 C         0.935462        -0.726450        -0.245555
 H        -2.029614         2.045637         0.290453
 H        -1.048973         3.538698         0.184321
 H        -0.856282         2.112830        -1.067845
 H         2.027356         0.705880         2.921729
 H         2.440171         3.210565         1.611441
 H         3.521146         1.752111         1.107834
 H         2.244851         1.505463        -1.860594
 H         0.372118        -1.456373         0.405711
 H         0.217698        -0.604472        -1.095107
 H         1.956530        -1.103837        -0.690116
