19
Iteration:  2002charge 0 multiplicity 1
 C        -1.056510         2.242487        -0.131249
 C         0.141451         1.870318         0.620522
 O         0.291761         1.974780         2.065222
 C         1.643101         1.009219         1.827667
 C         2.693969         1.874656         1.212279
 C         1.571326         2.089599         0.039180
 O         1.695716         2.337788        -1.297197
 C         0.972470         0.634458         0.481417
 C         0.986322        -0.733655        -0.131370
 H        -1.875550         1.686300         0.310331
 H        -1.382944         3.228604        -0.013764
 H        -0.962114         2.042848        -1.344405
 H         1.638945         0.320651         2.811812
 H         3.137970         2.650003         1.787756
 H         3.409708         1.156645         0.809448
 H         2.447899         1.915833        -1.756767
 H         0.121426        -1.349830         0.150091
 H         0.920923        -0.763566        -1.185876
 H         2.004691        -1.351449         0.106866
