19
Iteration:  2996charge 0 multiplicity 1
 C        -1.000777         2.230825        -0.174407
 C         0.203257         1.786522         0.614768
 O         0.338782         1.938882         2.111160
 C         1.573939         1.085619         1.887004
 C         2.581524         2.025195         1.156024
 C         1.649319         1.897791         0.040583
 O         1.747582         2.516210        -1.219352
 C         1.057586         0.508373         0.541905
 C         0.814566        -0.810285        -0.278685
 H        -1.846684         1.730902         0.263523
 H        -1.319636         3.251009        -0.140469
 H        -0.864782         1.909974        -1.239476
 H         1.659998         0.601538         2.958656
 H         2.939985         2.986832         1.611956
 H         3.520796         1.436920         1.107990
 H         2.278809         1.920609        -1.812128
 H         0.038573        -1.455139         0.167250
 H         0.573025        -0.652476        -1.278649
 H         1.777688        -1.322033        -0.363991
