19
Iteration:  4704
 C        -1.125556         2.272507         0.084363
 C         0.165830         1.886437         0.590635
 O         0.418271         1.846150         2.072571
 C         1.584499         0.983884         1.848719
 C         2.610581         2.051283         1.154896
 C         1.668856         1.891245         0.015222
 O         1.898474         2.258415        -1.284789
 C         1.081139         0.608919         0.429775
 C         0.692839        -0.666651        -0.270680
 H        -1.885501         1.597586         0.341993
 H        -1.323769         3.276810         0.122339
 H        -1.022474         2.227996        -1.013535
 H         1.989951         0.365584         2.703278
 H         2.614847         2.933714         1.730297
 H         3.513978         1.504432         0.964599
 H         1.819630         3.228100        -1.263308
 H        -0.197029        -1.145733         0.129994
 H         0.428824        -0.209413        -1.222954
 H         1.560207        -1.424435        -0.350135
