19
Iteration:  3877
 C        -1.041217         2.486965        -0.074538
 C         0.144880         1.764927         0.709818
 O         0.345605         1.858706         2.216289
 C         1.537660         1.058078         1.931923
 C         2.510690         1.995175         1.149255
 C         1.572632         1.875427        -0.023370
 O         1.841214         2.436690        -1.373302
 C         1.109433         0.540979         0.434768
 C         0.960116        -0.874344        -0.270366
 H        -1.917229         1.913820         0.233745
 H        -1.029650         3.511431         0.247931
 H        -0.577411         2.601634        -1.126937
 H         1.873195         0.401665         2.712609
 H         2.452033         3.008584         1.528568
 H         3.594164         1.727395         1.106092
 H         1.377810         1.920276        -2.041563
 H         0.140171        -1.474917         0.175076
 H         0.458402        -0.681697        -1.218592
 H         1.807184        -1.452811        -0.404996
