19
Iteration:   816charge 0 multiplicity 1
 C        -1.076638         2.157612        -0.013931
 C         0.154698         1.857024         0.627756
 O         0.334022         1.935087         2.050982
 C         1.512626         1.089123         1.880566
 C         2.504435         2.024278         1.177923
 C         1.604519         1.963231         0.028175
 O         1.871088         2.332880        -1.271253
 C         1.101625         0.605683         0.440850
 C         0.882178        -0.728928        -0.215694
 H        -1.860753         1.448122         0.341828
 H        -1.444968         3.212481        -0.029070
 H        -1.001633         2.115121        -1.138118
 H         1.816430         0.479869         2.641968
 H         2.824065         2.918189         1.625550
 H         3.446088         1.517114         0.840326
 H         2.701132         1.924816        -1.505828
 H         0.565173        -1.421240         0.562133
 H         0.361657        -0.646798        -1.259912
 H         1.800875        -1.076564        -0.674955
