19
Iteration:  2262
 C        -0.981825         2.435809        -0.111257
 C         0.217427         1.797521         0.637205
 O         0.289352         1.887173         2.049618
 C         1.539880         1.084709         1.949285
 C         2.583588         2.065127         1.234751
 C         1.603158         1.880604         0.068210
 O         1.574600         2.336332        -1.321659
 C         1.081183         0.481266         0.491689
 C         1.041203        -0.802189        -0.266901
 H        -1.761078         1.679672        -0.114064
 H        -1.343320         3.359726         0.257626
 H        -0.544516         2.511880        -1.171416
 H         1.811560         0.385268         2.772972
 H         2.672555         3.185587         1.506721
 H         3.563068         1.533877         1.145865
 H         2.429339         2.100290        -1.761271
 H         0.770824        -1.562724         0.490270
 H         0.279119        -0.633418        -1.166622
 H         1.965445        -1.083268        -0.655960
