19
Iteration:   232charge 0 multiplicity 1
 C        -1.025038         2.160390        -0.083075
 C         0.214457         1.854251         0.597080
 O         0.416687         2.025535         2.050043
 C         1.503491         1.155583         1.875375
 C         2.538871         1.919323         1.136066
 C         1.531353         1.930575         0.008275
 O         1.837343         2.466777        -1.267025
 C         0.869479         0.531859         0.578619
 C         0.945367        -0.842530        -0.212994
 H        -1.837055         1.585045         0.248307
 H        -1.387486         3.136102         0.098641
 H        -0.769872         2.006112        -1.165267
 H         1.649429         0.723349         2.823550
 H         3.016752         2.893112         1.533262
 H         3.411169         1.236053         0.929394
 H         2.560803         1.873028        -1.474379
 H         0.563536        -1.726388         0.319660
 H         0.371086        -0.738130        -1.108306
 H         2.109886        -0.997124        -0.539744
