19
Iteration:  1969
 C        -0.996356         2.278370        -0.044304
 C         0.221497         1.758519         0.597256
 O         0.368220         1.882651         2.117582
 C         1.562250         1.148043         1.978570
 C         2.448592         2.159383         1.200926
 C         1.661979         1.778787        -0.092243
 O         1.811401         2.291272        -1.299339
 C         1.047429         0.562662         0.525252
 C         0.825215        -0.678854        -0.314904
 H        -1.777034         1.986003         0.641099
 H        -0.962930         3.324062        -0.053079
 H        -1.227667         1.835742        -1.136005
 H         1.908355         0.589100         2.968934
 H         2.383418         3.193724         1.506351
 H         3.500002         1.831319         1.316161
 H         2.374823         1.797701        -1.951478
 H        -0.070265        -1.256261        -0.058119
 H         0.710855        -0.347623        -1.300978
 H         1.734452        -1.453208        -0.245498
