19
Iteration:  1826charge 0 multiplicity 1
 C        -0.960683         2.390643        -0.071329
 C         0.228992         1.803860         0.600976
 O         0.309659         1.763979         2.056112
 C         1.509423         1.020501         1.838660
 C         2.544827         2.156831         1.120008
 C         1.586898         1.990157         0.002599
 O         1.783705         2.312363        -1.362740
 C         1.156601         0.536708         0.496585
 C         0.776026        -0.763427        -0.050391
 H        -1.829185         1.676370        -0.083516
 H        -1.279471         3.282916         0.392777
 H        -0.698403         2.594375        -1.129073
 H         1.941423         0.413026         2.700620
 H         2.424006         3.044111         1.794456
 H         3.626591         1.898170         1.052148
 H         2.740254         2.107874        -1.543982
 H        -0.070050        -1.278270         0.417096
 H         0.621491        -0.645337        -1.065733
 H         1.614810        -1.573349         0.103309
