19
Iteration:  1141charge 0 multiplicity 1
 C        -1.124231         2.253788         0.037908
 C         0.257059         1.832905         0.551433
 O         0.299731         1.849412         1.968508
 C         1.521819         1.084816         1.849080
 C         2.466768         2.092171         1.190191
 C         1.615041         1.866247        -0.043041
 O         1.948013         2.397371        -1.260718
 C         1.144144         0.560098         0.446365
 C         0.837282        -0.741831        -0.115676
 H        -1.778303         1.708559         0.649560
 H        -1.245033         3.291729         0.421394
 H        -1.569065         2.415294        -1.060422
 H         1.674499         0.385214         2.718799
 H         2.465071         3.068713         1.656618
 H         3.505729         1.703724         0.994647
 H         2.530154         1.792433        -1.810980
 H         0.324778        -1.387071         0.577396
 H         0.414663        -0.618965        -1.071948
 H         1.798464        -1.315983        -0.417398
