19
Iteration:  3486charge 0 multiplicity 1
 C        -1.029103         2.310297        -0.063278
 C         0.274910         1.816194         0.567544
 O         0.354155         1.828763         2.007543
 C         1.541790         1.000976         1.831391
 C         2.554559         2.038439         1.172637
 C         1.681936         1.923262         0.003431
 O         1.756197         2.510337        -1.288888
 C         1.012930         0.559594         0.454994
 C         0.821924        -0.783741        -0.059783
 H        -1.833462         1.622009         0.073367
 H        -1.503116         3.250398         0.334347
 H        -0.840759         2.282811        -1.139753
 H         1.824884         0.412902         2.655640
 H         2.703982         2.897123         1.823498
 H         3.588328         1.652654         1.190783
 H         2.333475         1.980788        -1.858320
 H         0.081291        -1.324278         0.542506
 H         0.444901        -0.846864        -1.089456
 H         1.821355        -1.358161         0.063701
