19
Iteration:  3641charge 0 multiplicity 1
 C        -1.027260         2.386809        -0.008989
 C         0.228807         1.862020         0.578412
 O         0.357234         1.981550         1.932891
 C         1.458619         0.975963         1.837411
 C         2.587163         1.906716         1.190145
 C         1.656855         1.825732         0.006839
 O         1.634958         2.499583        -1.202617
 C         1.060538         0.520430         0.440916
 C         1.022713        -0.857589        -0.144830
 H        -1.860334         1.697154         0.272437
 H        -1.268425         3.580665         0.170464
 H        -1.064000         2.515756        -1.139283
 H         1.550480         0.540867         2.842992
 H         2.625629         2.935404         1.657348
 H         3.531998         1.344646         1.071159
 H         2.456067         2.316902        -1.703920
 H         0.582677        -1.457089         0.662041
 H         0.379129        -0.986363        -0.991011
 H         2.032176        -1.254394        -0.346526
