19
Iteration:  1768charge 0 multiplicity 1
 C        -1.103634         2.172921        -0.028073
 C         0.201382         1.793062         0.603172
 O         0.365318         2.066373         1.982079
 C         1.492101         1.107509         1.901674
 C         2.604583         1.902440         1.191422
 C         1.598899         1.888704        -0.002519
 O         1.892677         2.371772        -1.278403
 C         1.017895         0.558222         0.537838
 C         0.873462        -0.661767        -0.237066
 H        -1.780224         1.503172         0.620356
 H        -1.355923         3.228313         0.216523
 H        -1.259933         1.955870        -1.004141
 H         1.736436         0.626606         2.819561
 H         2.786975         2.898019         1.627507
 H         3.461942         1.341208         1.131627
 H         2.127583         1.613964        -1.815520
 H         0.195937        -1.426616         0.140378
 H         0.581053        -0.464440        -1.320011
 H         1.859914        -1.040436        -0.291353
