19
Iteration:  2224
 C        -1.018274         2.466297         0.097317
 C         0.160511         1.713117         0.599784
 O         0.265197         1.796546         2.033470
 C         1.564669         1.094309         1.924298
 C         2.482540         2.212926         1.158317
 C         1.600428         1.875182        -0.052933
 O         1.802026         2.315823        -1.343640
 C         1.072766         0.492021         0.460052
 C         0.995686        -0.841997        -0.224547
 H        -2.044763         2.014613         0.292667
 H        -1.031310         3.587262         0.312908
 H        -1.015854         2.404956        -0.956668
 H         1.883872         0.728872         2.901879
 H         2.385701         3.175085         1.574167
 H         3.532916         1.933991         1.176585
 H         2.760784         2.166049        -1.500726
 H         0.230551        -1.502037         0.148517
 H         0.616518        -0.681513        -1.184284
 H         1.994467        -1.408593        -0.370760
