19
Iteration:  4795
 C        -1.048498         2.537731         0.111079
 C         0.167551         1.834607         0.706262
 O         0.307869         1.847572         2.159090
 C         1.541313         1.014047         1.820656
 C         2.578772         1.951534         1.155185
 C         1.561027         1.918708         0.008006
 O         1.813457         2.247019        -1.356548
 C         1.059502         0.564546         0.307630
 C         0.962641        -0.802767        -0.270873
 H        -1.919661         2.076758         0.552307
 H        -0.802683         3.554796         0.168105
 H        -1.106437         2.365866        -0.933409
 H         1.875451         0.407289         2.626108
 H         2.787044         2.961471         1.566665
 H         3.431577         1.522130         0.670161
 H         1.798121         3.240810        -1.266197
 H         0.277817        -1.545367         0.357451
 H         0.599429        -0.725449        -1.321959
 H         1.942614        -1.235506        -0.332371
