19
Iteration:  3863charge 0 multiplicity 1
 C        -1.014617         2.504707         0.001379
 C         0.159849         1.790112         0.578964
 O         0.376464         1.774043         2.142093
 C         1.548192         1.043218         1.841339
 C         2.502687         2.139112         1.181223
 C         1.605254         1.852601        -0.036913
 O         1.873382         2.382234        -1.294045
 C         1.001656         0.489427         0.441693
 C         0.925696        -0.840664        -0.204139
 H        -2.041491         2.182076         0.004535
 H        -1.075737         3.592590         0.384664
 H        -0.937081         2.501130        -1.105614
 H         1.891542         0.431231         2.674143
 H         2.620196         3.155194         1.680986
 H         3.479205         1.606983         0.985252
 H         1.067475         2.306493        -1.857775
 H         0.406867        -1.568954         0.488318
 H         0.500859        -0.845901        -1.230983
 H         2.046632        -1.241850        -0.249106
