19
Iteration:   877charge 0 multiplicity 1
 C        -1.066934         2.289172        -0.057236
 C         0.227478         1.793404         0.536775
 O         0.322646         1.867654         1.981268
 C         1.568790         1.039667         1.843417
 C         2.540058         2.088961         1.199105
 C         1.621462         1.930369         0.003456
 O         1.804018         2.456885        -1.221959
 C         1.079592         0.523498         0.477006
 C         0.855478        -0.806508        -0.112710
 H        -1.810578         1.845168         0.527871
 H        -1.163168         3.352607         0.095564
 H        -1.212546         1.942766        -1.059745
 H         1.787019         0.336294         2.704709
 H         2.544671         3.115205         1.659345
 H         3.499876         1.737243         0.808260
 H         2.566949         2.180406        -1.776043
 H         0.033260        -1.445816         0.189930
 H         0.703980        -0.795093        -1.142165
 H         1.805965        -1.391309         0.147319
