19
Iteration:  1893
 C        -1.058925         2.183330        -0.129640
 C         0.220665         1.853289         0.622032
 O         0.375284         2.012068         2.124577
 C         1.453066         1.103735         1.823056
 C         2.580856         1.802051         1.130488
 C         1.621297         1.951672        -0.026427
 O         1.844519         2.567397        -1.265403
 C         0.940116         0.602014         0.426045
 C         0.874835        -0.849785        -0.082708
 H        -1.795165         1.495164         0.183777
 H        -1.338299         3.183856         0.022653
 H        -0.837169         1.853695        -1.238585
 H         1.737460         0.646004         2.832824
 H         2.902904         2.793453         1.489257
 H         3.477923         1.116778         0.939600
 H         2.483734         2.039006        -1.740436
 H         0.540702        -1.508470         0.736918
 H         0.392890        -1.042167        -0.960782
 H         2.023908        -1.217128        -0.182437
