19
Iteration:  2774
 C        -1.212415         2.197854         0.040896
 C         0.190310         1.791333         0.605431
 O         0.283520         1.774882         2.032694
 C         1.541596         1.109361         1.893139
 C         2.569498         2.127893         1.320902
 C         1.717979         1.920633        -0.038622
 O         1.951866         2.398758        -1.328226
 C         1.109006         0.571462         0.353533
 C         0.805985        -0.701930        -0.235153
 H        -1.998515         1.704709         0.579366
 H        -1.456989         3.275721         0.021495
 H        -1.301128         1.826489        -0.963415
 H         1.814479         0.467397         2.642258
 H         2.547694         3.262314         1.534865
 H         3.605948         1.786722         1.149068
 H         2.918620         2.369680        -1.580566
 H         0.017964        -1.171519         0.320989
 H         0.476973        -0.610683        -1.171822
 H         1.643466        -1.521346        -0.106219
