19
Iteration:  4585
 C        -1.057977         2.420715         0.067767
 C         0.199194         1.835218         0.656100
 O         0.348052         1.913510         2.044680
 C         1.515431         0.978711         1.843438
 C         2.752916         1.948084         1.090049
 C         1.628413         1.953260         0.079054
 O         1.821018         2.333495        -1.259184
 C         0.928268         0.540967         0.448595
 C         0.865862        -0.787841        -0.256393
 H        -2.008517         1.912891         0.202600
 H        -1.200884         3.540467        -0.042622
 H        -0.990212         2.287131        -1.098417
 H         1.800286         0.301320         2.742094
 H         3.091682         2.865577         1.699775
 H         3.566928         1.266960         0.744361
 H         1.272194         2.993451        -1.704452
 H         0.037045        -1.411156         0.254503
 H         0.645468        -0.681453        -1.351492
 H         1.794636        -1.331034        -0.169297
