19
Iteration:  2057
 C        -1.096989         2.346574        -0.016196
 C         0.152400         1.711842         0.506937
 O         0.398818         1.914847         1.943189
 C         1.551784         1.111419         1.874361
 C         2.546231         2.072524         1.152156
 C         1.550804         2.013748         0.019259
 O         1.842517         2.477351        -1.229826
 C         1.041039         0.476464         0.490863
 C         0.908895        -0.966610        -0.094536
 H        -2.012294         1.816359        -0.003196
 H        -1.163568         3.246623         0.568244
 H        -0.919063         2.747094        -1.116510
 H         1.665076         0.622943         2.890114
 H         2.713990         3.028166         1.586268
 H         3.472660         1.541941         0.990958
 H         2.533366         1.953905        -1.716103
 H         0.396581        -1.678310         0.557120
 H         0.405818        -0.911815        -1.001335
 H         1.889385        -1.459967        -0.383953
