19
Iteration:  1771
 C        -1.075475         2.179912        -0.022879
 C         0.217977         1.803818         0.597375
 O         0.344296         2.058160         1.996000
 C         1.493774         1.092632         1.886315
 C         2.589881         1.935011         1.216564
 C         1.577838         1.893185        -0.008568
 O         1.898111         2.364684        -1.290190
 C         1.026813         0.549494         0.550761
 C         0.849578        -0.662104        -0.244213
 H        -1.703149         1.495256         0.610317
 H        -1.246383         3.180693         0.284050
 H        -1.324654         1.967110        -1.043269
 H         1.772247         0.587228         2.819468
 H         2.780803         2.986062         1.532383
 H         3.507713         1.310743         1.052192
 H         2.116113         1.605112        -1.859041
 H         0.180433        -1.430894         0.129062
 H         0.649085        -0.482892        -1.230005
 H         1.920257        -1.107604        -0.310239
