19
Iteration:    36
 C        -1.057020         2.423815        -0.069142
 C         0.169797         1.727119         0.625391
 O         0.266415         1.817007         2.164853
 C         1.529197         1.054244         1.906238
 C         2.500845         2.215175         1.215293
 C         1.685750         1.889005        -0.042005
 O         1.820016         2.217667        -1.387220
 C         1.226343         0.540298         0.486032
 C         0.901644        -0.704011        -0.219678
 H        -2.071445         2.146444         0.346597
 H        -0.835716         3.526601         0.177130
 H        -1.179812         2.486428        -1.245949
 H         1.738983         0.343948         2.550668
 H         2.300425         3.156650         1.637317
 H         3.524198         1.997698         1.194427
 H         2.090896         1.443150        -1.850782
 H         0.338595        -1.472507         0.519794
 H         0.239345        -0.383134        -1.012411
 H         1.691971        -1.187598        -0.599353
