19
Iteration:  2723
 C        -1.103752         2.222764        -0.139472
 C         0.200893         1.761074         0.644418
 O         0.319555         1.956412         2.073580
 C         1.511106         1.140731         1.922817
 C         2.637304         2.001413         1.258374
 C         1.627136         1.885190         0.053268
 O         1.734794         2.405352        -1.225235
 C         1.051105         0.524532         0.462431
 C         0.998360        -0.712129        -0.351520
 H        -2.040243         1.706552         0.107386
 H        -1.387560         3.259994         0.218477
 H        -0.937044         2.182184        -1.182481
 H         2.021095         0.772838         2.791142
 H         2.816721         2.925626         1.746562
 H         3.501285         1.378017         1.143316
 H         1.964938         1.682280        -1.850838
 H         0.217115        -1.449735         0.007343
 H         0.721777        -0.504524        -1.487670
 H         1.878566        -1.249728        -0.280841
