19
Iteration:  3115charge 0 multiplicity 1
 C        -1.011543         2.151684        -0.038227
 C         0.234519         1.869497         0.643873
 O         0.323472         2.047697         2.032521
 C         1.442209         1.033006         1.831273
 C         2.646992         1.934372         1.223662
 C         1.626757         1.854415         0.004063
 O         1.767693         2.430136        -1.255751
 C         1.011127         0.589907         0.455507
 C         0.896391        -0.706811        -0.227203
 H        -1.781980         1.451887         0.346311
 H        -1.505620         3.168395         0.254218
 H        -0.839779         2.149905        -1.202755
 H         1.609520         0.367838         2.793971
 H         2.829004         2.824725         1.863097
 H         3.645295         1.532536         0.981637
 H         2.129663         1.870957        -1.934921
 H         0.124982        -1.422784         0.210437
 H         0.845389        -0.690990        -1.322064
 H         2.017869        -1.229498        -0.149415
