19
Iteration:   407charge 0 multiplicity 1
 C        -1.078220         2.143869         0.013146
 C         0.171112         1.831171         0.569033
 O         0.302295         2.006048         1.989928
 C         1.477258         1.070067         1.885906
 C         2.554313         1.967743         1.087930
 C         1.553741         1.869669        -0.082827
 O         1.990675         2.508106        -1.243923
 C         1.025897         0.549567         0.540222
 C         0.883967        -0.724667        -0.118822
 H        -1.786730         1.401576         0.576868
 H        -1.346542         3.218358         0.257403
 H        -1.016146         1.821974        -1.054602
 H         1.752167         0.367344         2.797524
 H         2.766945         2.989326         1.661660
 H         3.435745         1.234675         0.828555
 H         2.665895         2.001544        -1.709133
 H         0.365325        -1.497816         0.525372
 H         0.189242        -0.626465        -0.932258
 H         1.924012        -1.241833        -0.642095
