19
Iteration:    66
 C        -1.012376         2.321553        -0.019638
 C         0.205598         1.812279         0.627047
 O         0.294127         1.913595         2.065662
 C         1.568155         1.165891         1.926456
 C         2.547021         2.081771         1.140794
 C         1.547115         1.944783         0.021066
 O         1.825124         2.283519        -1.275442
 C         0.975401         0.514829         0.429775
 C         0.915397        -0.800589        -0.252768
 H        -1.865204         1.890247         0.390983
 H        -0.961671         3.344905         0.191904
 H        -0.893520         2.299476        -1.060562
 H         1.718462         0.497286         2.782856
 H         2.726535         3.073317         1.616072
 H         3.514246         1.591031         0.952438
 H         2.435916         1.536089        -1.581112
 H         0.628966        -1.633689         0.270839
 H         0.470463        -0.774943        -1.256868
 H         2.047595        -1.091772        -0.438639
