19
Iteration:   725
 C        -1.076219         2.310430        -0.025288
 C         0.196983         1.788643         0.539846
 O         0.343803         1.798964         2.036725
 C         1.507141         1.030496         1.809269
 C         2.470932         2.076876         1.156929
 C         1.664944         1.937955         0.006299
 O         1.811774         2.400912        -1.290795
 C         1.088583         0.590907         0.378487
 C         0.914678        -0.749961        -0.041670
 H        -1.902877         1.672685         0.302614
 H        -1.155031         3.406309         0.285261
 H        -1.108489         2.411784        -1.143394
 H         1.962369         0.394766         2.717935
 H         2.321995         3.017756         1.670978
 H         3.535924         1.883355         1.102869
 H         2.681635         1.945104        -1.466678
 H         0.046812        -1.226915         0.541161
 H         0.898600        -0.857540        -1.078706
 H         1.717215        -1.301779         0.221139
