19
Iteration:  3475
 C        -0.963535         2.352461        -0.066862
 C         0.210405         1.797118         0.576726
 O         0.327145         1.801304         1.937606
 C         1.570628         1.078063         1.865567
 C         2.589442         2.063926         1.263725
 C         1.637760         1.944196         0.011212
 O         1.677765         2.472427        -1.245741
 C         1.150011         0.551860         0.349116
 C         0.817059        -0.865926        -0.050676
 H        -1.782534         1.754728         0.198538
 H        -0.954974         3.363839         0.403076
 H        -0.886842         2.581590        -1.128397
 H         1.729682         0.477710         2.716348
 H         2.493016         3.056375         1.683015
 H         3.501534         1.482990         1.062847
 H         2.218012         1.863873        -1.822147
 H         0.069647        -1.273578         0.648668
 H         0.353015        -0.796083        -1.050349
 H         1.732972        -1.579827        -0.188975
