19
Iteration:  2247charge 0 multiplicity 1
 C        -0.921797         2.407489        -0.033326
 C         0.172116         1.699138         0.579144
 O         0.344438         1.918147         1.995353
 C         1.489629         1.071218         1.907457
 C         2.474966         2.150862         1.191658
 C         1.618861         1.846864         0.000344
 O         1.620387         2.288607        -1.253696
 C         1.141262         0.514440         0.525209
 C         1.017343        -0.821620        -0.259991
 H        -2.036831         2.001970         0.046949
 H        -0.820806         3.382684         0.616573
 H        -0.790330         2.755152        -1.019667
 H         1.701137         0.678130         2.990645
 H         2.401548         3.047081         1.801744
 H         3.506288         1.887658         0.979200
 H         2.530836         2.332267        -1.538327
 H         0.493962        -1.697465         0.152024
 H         0.342531        -0.595510        -1.101013
 H         2.012538        -1.161980        -0.739322
