19
Iteration:  4081charge 0 multiplicity 1
 C        -1.051149         2.414600         0.031161
 C         0.203698         1.763086         0.618654
 O         0.366128         1.916088         2.084992
 C         1.535072         1.071958         1.848499
 C         2.676296         1.908767         1.186447
 C         1.639922         1.891557         0.070692
 O         1.763015         2.350701        -1.352085
 C         0.960107         0.568389         0.396370
 C         0.807547        -0.784556        -0.244976
 H        -1.938327         1.845697         0.200556
 H        -1.135562         3.523220         0.458284
 H        -1.011908         2.437539        -1.117800
 H         1.807323         0.414611         2.643242
 H         2.964592         2.792316         1.761858
 H         3.560816         1.289650         0.910636
 H         2.425629         3.034564        -1.254606
 H         0.279975        -1.458914         0.367701
 H         0.624823        -0.642498        -1.272785
 H         1.787334        -1.146952        -0.325953
