19
Iteration:  1469
 C        -1.036676         2.307595        -0.095091
 C         0.214574         1.941272         0.616396
 O         0.306940         1.962062         2.051871
 C         1.500165         1.016843         1.850439
 C         2.635243         1.846469         1.111279
 C         1.587791         1.867324        -0.060148
 O         1.761464         2.535822        -1.284053
 C         0.954138         0.590857         0.447208
 C         0.976328        -0.875014        -0.017921
 H        -1.782240         1.751863         0.331440
 H        -1.199160         3.376919        -0.126832
 H        -0.906761         1.978236        -1.181046
 H         1.623605         0.489797         2.875746
 H         2.869309         2.709053         1.680986
 H         3.519851         1.209565         0.919077
 H         2.692730         2.349207        -1.501338
 H         0.234751        -1.427473         0.572665
 H         0.697199        -1.017997        -1.143889
 H         1.863752        -1.348380         0.041820
