19
Iteration:  3894charge 0 multiplicity 1
 C        -0.962562         2.342577        -0.002709
 C         0.206839         1.770478         0.660909
 O         0.330105         1.868865         2.055220
 C         1.590282         1.041412         1.856679
 C         2.558598         2.024315         1.172014
 C         1.590533         1.920432         0.023819
 O         1.760287         2.396091        -1.278978
 C         0.983272         0.547820         0.483543
 C         0.872833        -0.721017        -0.268058
 H        -1.896002         1.785954         0.095227
 H        -1.092059         3.449015         0.292095
 H        -0.723480         2.434530        -1.050103
 H         1.848387         0.510145         2.790528
 H         2.873934         2.953630         1.716464
 H         3.429832         1.411251         0.904928
 H         1.908098         1.648756        -1.892983
 H         0.145547        -1.406392         0.204894
 H         0.707949        -0.559837        -1.350926
 H         1.963693        -1.207585        -0.257408
