19
Iteration:  4484charge 0 multiplicity 1
 C        -1.063058         2.264319         0.018631
 C         0.238179         1.933851         0.649415
 O         0.393842         2.010926         2.153958
 C         1.514033         1.029931         1.833164
 C         2.644070         1.856278         1.150803
 C         1.687089         1.926449         0.059939
 O         1.880848         2.336438        -1.304558
 C         0.959108         0.588523         0.399872
 C         0.774268        -0.799481        -0.277361
 H        -1.955786         1.617702         0.229996
 H        -1.451715         3.274334         0.259867
 H        -1.235739         2.217480        -1.132893
 H         1.879207         0.402663         2.657061
 H         3.044468         2.770961         1.638735
 H         3.500606         1.135717         0.857902
 H         1.248454         3.089576        -1.476070
 H         0.222350        -1.437460         0.330715
 H         0.368588        -0.587585        -1.293143
 H         1.646083        -1.268838        -0.687627
