19
Iteration:  1442
 C        -1.147595         2.329251        -0.054304
 C         0.109877         1.776259         0.546859
 O         0.367862         1.956100         2.036520
 C         1.521138         0.994158         1.845932
 C         2.665490         1.961456         1.127648
 C         1.551816         1.940927        -0.019598
 O         1.913825         2.492188        -1.295295
 C         0.947028         0.599635         0.452461
 C         0.927612        -0.850129        -0.016075
 H        -2.014065         1.550859         0.189692
 H        -1.239199         3.395619         0.259108
 H        -1.018026         2.345747        -1.130475
 H         1.647216         0.519962         2.748838
 H         2.996572         2.881411         1.732492
 H         3.487567         1.330069         0.766109
 H         2.631684         1.895860        -1.549039
 H         0.076951        -1.390304         0.428217
 H         0.753449        -0.893954        -1.029871
 H         1.958224        -1.447036         0.109138
