19
Iteration:  4038
 C        -0.944885         2.341065        -0.084192
 C         0.169924         1.714014         0.652308
 O         0.437203         1.878375         2.080180
 C         1.575004         0.969199         1.810974
 C         2.608694         1.934931         1.214694
 C         1.546404         2.002465        -0.043942
 O         1.741401         2.528328        -1.267219
 C         0.983948         0.589374         0.444756
 C         0.786082        -0.834454        -0.166269
 H        -1.954217         2.164601         0.147890
 H        -0.833224         3.468377         0.121562
 H        -1.006209         2.417136        -1.213022
 H         1.714349         0.388588         2.684885
 H         2.994960         2.836101         1.764604
 H         3.545374         1.335617         0.935137
 H         2.547512         2.181265        -1.646419
 H         0.207279        -1.326606         0.604161
 H         0.198014        -0.782989        -1.059929
 H         1.717707        -1.417146        -0.302834
