19
Iteration:  4698charge 0 multiplicity 1
 C        -1.120977         2.286844         0.046165
 C         0.196896         1.880490         0.654265
 O         0.416757         1.816784         2.095792
 C         1.578730         1.006020         1.893010
 C         2.589878         2.070033         1.153278
 C         1.655682         1.942863        -0.017425
 O         1.911882         2.243209        -1.257712
 C         1.084508         0.618553         0.331000
 C         0.671507        -0.719740        -0.272701
 H        -1.898462         1.506626         0.397644
 H        -1.285169         3.439684         0.273635
 H        -1.019197         2.054404        -1.034326
 H         1.919347         0.410270         2.709321
 H         2.719229         3.054808         1.746153
 H         3.618445         1.679525         0.919680
 H         1.980019         3.227492        -1.396035
 H        -0.241537        -1.147065         0.267016
 H         0.361659        -0.411909        -1.307036
 H         1.417268        -1.436134        -0.453316
