19
Iteration:  3282
 C        -0.985632         2.272523        -0.110622
 C         0.228936         1.713110         0.553637
 O         0.342880         1.989926         1.964758
 C         1.585117         1.027943         1.845683
 C         2.602282         1.982567         1.239081
 C         1.627477         1.870934        -0.004107
 O         1.699310         2.493167        -1.225128
 C         1.123510         0.552261         0.491890
 C         0.746577        -0.811867        -0.095952
 H        -1.891972         1.505230        -0.067425
 H        -1.213123         3.302274         0.230772
 H        -0.601050         2.429758        -1.128052
 H         1.812179         0.323904         2.575792
 H         2.476282         2.943516         1.762182
 H         3.652764         1.771131         1.147407
 H         2.601342         2.377189        -1.579098
 H         0.107396        -1.350087         0.549053
 H         0.404257        -0.528988        -1.037385
 H         1.528724        -1.421225        -0.340889
