19
Iteration:  1190
 C        -1.090056         2.153876        -0.111116
 C         0.268615         1.895358         0.637189
 O         0.374256         1.993235         2.097782
 C         1.517345         1.078156         1.888141
 C         2.498922         1.914604         1.139490
 C         1.630016         1.902458         0.034885
 O         1.809060         2.349967        -1.260059
 C         0.965727         0.585098         0.493818
 C         0.939506        -0.654624        -0.218640
 H        -1.737896         1.212024        -0.050721
 H        -1.730072         3.031732         0.085295
 H        -0.926453         2.383679        -1.093438
 H         1.856607         0.640638         2.781029
 H         2.834352         2.918695         1.534567
 H         3.375687         1.342808         0.800974
 H         2.580048         1.851506        -1.519292
 H         0.371375        -1.340413         0.465988
 H         0.506981        -0.459613        -1.225049
 H         1.867712        -1.194839        -0.558638
