19
Iteration:   537
 C        -1.158016         2.281745        -0.050193
 C         0.162199         1.887158         0.601535
 O         0.297498         1.920260         2.055144
 C         1.439151         1.083945         1.847748
 C         2.612583         1.897220         1.228254
 C         1.689079         1.919613        -0.007362
 O         1.813834         2.452875        -1.374937
 C         1.028598         0.610358         0.436454
 C         1.037847        -0.812483        -0.095619
 H        -1.756580         1.438453         0.373890
 H        -1.348504         3.267581         0.401570
 H        -1.261560         2.388019        -1.130186
 H         1.634947         0.345842         2.739687
 H         2.964844         2.816412         1.600807
 H         3.451125         1.261604         1.033318
 H         2.664136         2.125690        -1.790861
 H         0.005028        -1.310659         0.399826
 H         0.897086        -0.943597        -1.162998
 H         1.920881        -1.390409         0.099524
