19
Iteration:  4634charge 0 multiplicity 1
 C        -1.003661         2.296159         0.006505
 C         0.220482         1.807955         0.652874
 O         0.396769         1.908485         2.017012
 C         1.594373         1.044840         1.791159
 C         2.654991         1.920845         1.228312
 C         1.664233         1.981637         0.033456
 O         1.837206         2.454941        -1.281456
 C         0.948915         0.555608         0.381649
 C         0.719021        -0.877135        -0.171962
 H        -1.876764         1.696042         0.358218
 H        -1.194580         3.360437         0.156989
 H        -1.103611         2.336071        -1.039717
 H         1.688336         0.446913         2.662604
 H         2.909030         2.816662         1.771944
 H         3.444353         1.286216         0.817758
 H         1.610847         3.395192        -1.460233
 H         0.149442        -1.586655         0.409468
 H         0.066783        -0.653841        -1.037519
 H         1.686730        -1.303800        -0.490887
