19
Iteration:  4661
 C        -1.077774         2.308189         0.020068
 C         0.208582         1.816982         0.672670
 O         0.383021         1.766909         2.071244
 C         1.571247         1.007188         1.826099
 C         2.563579         2.001537         1.159514
 C         1.669999         1.882557        -0.046987
 O         1.917142         2.398299        -1.334302
 C         1.135197         0.559489         0.414417
 C         0.684465        -0.670307        -0.140732
 H        -1.970832         1.868254         0.432744
 H        -1.293823         3.377852         0.117272
 H        -1.159877         2.281241        -1.105439
 H         1.622586         0.292985         2.699764
 H         2.461922         3.049811         1.490880
 H         3.537876         1.624644         0.881024
 H         2.177062         3.351353        -1.307269
 H         0.005653        -1.282604         0.505027
 H        -0.046052        -0.358921        -0.900806
 H         1.508509        -1.358955        -0.484692
