19
Iteration:  2327charge 0 multiplicity 1
 C        -1.194779         2.113249         0.089902
 C         0.185269         1.784014         0.513039
 O         0.357875         1.943592         2.015084
 C         1.472527         1.134692         1.867044
 C         2.552541         2.034323         1.155104
 C         1.728900         1.885316        -0.034797
 O         2.011169         2.579083        -1.232901
 C         1.040798         0.533136         0.480436
 C         0.845341        -0.805291        -0.203762
 H        -1.946043         1.380855         0.530228
 H        -1.595422         3.061221         0.429302
 H        -1.411781         2.008332        -1.064789
 H         1.782847         0.430947         2.748845
 H         2.531410         3.122930         1.482003
 H         3.556608         1.580115         1.159543
 H         2.036744         1.877111        -1.883247
 H         0.095641        -1.466450         0.312366
 H         0.473290        -0.729794        -1.353847
 H         1.712308        -1.398431        -0.296219
