19
Iteration:  4589charge 0 multiplicity 1
 C        -1.051752         2.417952         0.023294
 C         0.198996         1.871901         0.645409
 O         0.364787         1.890614         2.037190
 C         1.530719         1.015439         1.835342
 C         2.756930         1.911243         1.075704
 C         1.602894         1.944291         0.071827
 O         1.824610         2.346105        -1.224446
 C         0.931962         0.535839         0.458823
 C         0.861642        -0.772778        -0.244201
 H        -1.978843         1.844056         0.300251
 H        -1.281468         3.494891        -0.014571
 H        -0.940206         2.316503        -1.012892
 H         1.792267         0.342958         2.581948
 H         2.983960         2.832702         1.605563
 H         3.530490         1.203617         0.872643
 H         1.167717         2.985939        -1.564482
 H         0.113361        -1.510781         0.115747
 H         0.492631        -0.782640        -1.248740
 H         1.814595        -1.234201        -0.047223
