19
Iteration:  4893charge 0 multiplicity 1
 C        -1.051217         2.109040         0.021546
 C         0.239145         1.829854         0.694082
 O         0.473704         1.977936         2.092318
 C         1.526046         1.096022         1.885109
 C         2.634983         1.840569         1.139616
 C         1.574985         1.949463        -0.008020
 O         1.864884         2.447770        -1.282054
 C         1.069752         0.578860         0.417452
 C         0.685858        -0.675079        -0.287260
 H        -1.785018         1.241827         0.174071
 H        -1.414787         3.098594         0.324231
 H        -0.753055         2.223483        -1.007738
 H         1.658776         0.391092         2.698325
 H         3.134612         2.607347         1.796040
 H         3.295547         1.143216         0.651552
 H         1.271511         3.226090        -1.450695
 H        -0.114986        -1.392192         0.207854
 H         0.282087        -0.343130        -1.299289
 H         1.560969        -1.377611        -0.422962
