19
Iteration:  1689charge 0 multiplicity 1
 C        -1.025476         2.408540        -0.090589
 C         0.195520         1.757732         0.542578
 O         0.301086         1.875462         2.096597
 C         1.570789         1.140570         1.856085
 C         2.554906         2.105758         1.212508
 C         1.687740         1.892176         0.011781
 O         1.760858         2.363299        -1.245844
 C         1.090785         0.493520         0.444133
 C         0.849098        -0.941286        -0.173208
 H        -1.918459         2.253380         0.400726
 H        -0.997736         3.537032         0.020319
 H        -1.016274         2.298591        -1.211292
 H         2.069398         0.658740         2.769293
 H         2.502455         3.141802         1.503174
 H         3.591143         1.950112         1.007256
 H         2.396214         2.097799        -1.886652
 H         0.236503        -1.453278         0.599694
 H         0.137179        -0.649247        -1.106869
 H         1.621263        -1.577378        -0.361094
