19
Iteration:  3521charge 0 multiplicity 1
 C        -1.175952         2.093512         0.000513
 C         0.121455         1.814718         0.648154
 O         0.405843         1.985918         2.026081
 C         1.546018         1.079767         1.861372
 C         2.620644         1.906345         1.109711
 C         1.606343         2.028679        -0.026130
 O         1.931586         2.467409        -1.237271
 C         0.988880         0.574877         0.507887
 C         0.807928        -0.719281        -0.228457
 H        -1.715334         1.229899         0.130183
 H        -1.650493         3.044360         0.018705
 H        -0.892821         2.074592        -1.013890
 H         1.876795         0.635397         2.776981
 H         3.028776         2.845419         1.554095
 H         3.268666         1.106990         0.710619
 H         2.881514         2.229049        -1.284485
 H        -0.105331        -1.253625         0.296895
 H         0.741537        -0.710214        -1.324680
 H         1.677824        -1.416055         0.022075
