19
Iteration:   302
 C        -0.990641         2.356206        -0.037098
 C         0.208454         1.787141         0.567123
 O         0.341678         1.813677         2.073042
 C         1.536035         1.093082         1.852636
 C         2.469257         2.129200         1.199224
 C         1.558693         1.896591        -0.021102
 O         1.818683         2.343161        -1.349920
 C         1.097909         0.555050         0.467976
 C         0.920858        -0.800148        -0.119966
 H        -1.990282         2.095299         0.415936
 H        -1.125388         3.435947         0.241213
 H        -1.054850         2.422256        -1.116419
 H         1.795566         0.392204         2.679672
 H         2.413625         3.035690         1.726376
 H         3.492338         1.858880         1.140291
 H         2.447184         1.806088        -1.810519
 H        -0.079636        -1.361332         0.344470
 H         0.822727        -0.636615        -1.253348
 H         1.801459        -1.398407         0.135617
