19
Iteration:    15
 C        -0.961498         2.359577         0.005900
 C         0.207250         1.828178         0.584026
 O         0.302999         1.784406         1.984743
 C         1.588370         1.103977         1.897519
 C         2.507324         2.180479         1.265543
 C         1.646631         1.964229         0.028622
 O         1.771722         2.254321        -1.334601
 C         1.057557         0.548836         0.424635
 C         0.870046        -0.755045        -0.205446
 H        -1.831225         1.744739         0.436217
 H        -1.035849         3.512748         0.101462
 H        -0.875025         2.169043        -1.164501
 H         1.851436         0.717390         2.783597
 H         2.542021         3.094326         1.804553
 H         3.469047         1.745195         1.195800
 H         2.205821         1.443246        -1.704057
 H         0.202163        -1.422771         0.596223
 H         0.304014        -0.666900        -1.136356
 H         1.678025        -1.351588        -0.347590
