19
Iteration:  4878
 C        -1.104804         2.196105        -0.070779
 C         0.202102         1.825756         0.637100
 O         0.412534         1.916163         2.108151
 C         1.647522         0.909815         1.891279
 C         2.690893         1.851013         1.098623
 C         1.638141         2.008770         0.008359
 O         1.869324         2.460464        -1.353941
 C         0.940314         0.564495         0.578770
 C         0.721953        -0.645991        -0.221548
 H        -1.942811         1.531478         0.212899
 H        -1.622804         3.101912         0.341136
 H        -0.980939         2.233260        -1.214521
 H         1.938990         0.315272         2.774631
 H         3.004568         2.857353         1.505757
 H         3.601193         1.219974         0.944096
 H         1.339639         3.268644        -1.433759
 H         0.065210        -1.214719         0.269267
 H         0.263647        -0.308227        -1.094339
 H         1.695399        -1.183562        -0.450390
