19
Iteration:  1952charge 0 multiplicity 1
 C        -1.006388         2.276158         0.064026
 C         0.253490         1.727995         0.630856
 O         0.250835         1.915744         2.003839
 C         1.593129         1.131204         1.912938
 C         2.516716         2.230462         1.255621
 C         1.721377         1.848648         0.040623
 O         1.838884         2.306763        -1.366831
 C         1.115798         0.435900         0.510859
 C         0.749627        -0.753115        -0.322175
 H        -1.893800         2.112821         0.722978
 H        -1.018470         3.441342        -0.169492
 H        -1.119579         1.859639        -0.855094
 H         1.852032         0.688220         2.770761
 H         2.171481         3.227369         1.687350
 H         3.651823         2.189767         1.108602
 H         2.498904         1.659138        -1.730396
 H        -0.103291        -1.344241         0.047137
 H         0.350283        -0.390141        -1.396077
 H         1.548492        -1.407902        -0.507601
