19
Iteration:  1733
 C        -1.125982         2.174787        -0.076431
 C         0.203686         1.907623         0.589210
 O         0.352287         2.049965         2.092591
 C         1.503684         1.083202         1.879915
 C         2.647729         1.834889         1.115837
 C         1.597363         1.978760         0.014748
 O         1.833232         2.351747        -1.310484
 C         0.950040         0.602779         0.492948
 C         0.947646        -0.735721        -0.178969
 H        -1.806447         1.761847         0.644244
 H        -1.522441         3.231749        -0.217944
 H        -1.235369         1.638480        -1.050282
 H         1.584170         0.392790         2.740431
 H         2.974163         2.606410         1.798209
 H         3.445292         1.129471         0.973486
 H         2.770515         2.209368        -1.329001
 H         0.555492        -1.542971         0.467073
 H         0.340361        -0.626217        -1.194573
 H         1.928039        -1.002563        -0.412255
