19
Iteration:   572charge 0 multiplicity 1
 C        -1.100190         2.258187         0.006619
 C         0.132236         1.729562         0.559651
 O         0.322391         1.910638         2.051531
 C         1.541386         1.022861         1.817971
 C         2.516198         2.123519         1.210334
 C         1.590416         1.904155        -0.029891
 O         1.977275         2.394062        -1.312361
 C         1.063405         0.592650         0.451746
 C         0.904505        -0.767165        -0.149848
 H        -2.097217         1.804936         0.271096
 H        -1.345440         3.215976         0.543065
 H        -1.179849         2.408406        -1.039555
 H         1.826349         0.387543         2.646705
 H         2.535798         3.116703         1.566734
 H         3.495666         1.668592         1.067638
 H         2.605806         1.689217        -1.652096
 H         0.087189        -1.290807         0.609967
 H         0.359752        -0.506101        -1.056200
 H         1.841951        -1.364115        -0.205821
