19
Iteration:  1908
 C        -1.079255         2.179183        -0.074883
 C         0.135669         1.900256         0.658966
 O         0.303784         1.903864         2.068466
 C         1.513454         1.033595         1.880016
 C         2.665948         1.995694         1.148235
 C         1.659810         1.915143        -0.028158
 O         1.884621         2.467541        -1.340474
 C         0.950817         0.634191         0.454796
 C         0.872999        -0.780084        -0.062809
 H        -1.987748         1.682612         0.348579
 H        -1.339058         3.311577        -0.283665
 H        -0.922999         1.834076        -1.065933
 H         1.613502         0.225427         2.514781
 H         3.077772         2.897072         1.641747
 H         3.511670         1.253211         0.968339
 H         2.683600         2.029166        -1.718697
 H         0.386727        -1.471073         0.637925
 H         0.204391        -0.784027        -1.039680
 H         1.816408        -1.075846        -0.380221
