19
Iteration:  2504charge 0 multiplicity 1
 C        -1.150610         2.328009         0.124617
 C         0.201380         1.775696         0.572451
 O         0.222194         1.742825         2.038153
 C         1.575974         1.091258         1.852298
 C         2.470931         2.159827         1.193030
 C         1.655864         1.915707        -0.048515
 O         1.944721         2.387230        -1.328768
 C         1.101672         0.585818         0.474580
 C         0.931301        -0.760546        -0.212227
 H        -1.969981         1.682728         0.333459
 H        -1.206986         3.399959         0.498777
 H        -1.034618         2.415512        -0.957991
 H         1.862990         0.439997         2.560134
 H         2.522540         3.098170         1.682273
 H         3.465444         1.737264         1.060024
 H         2.305280         1.709447        -1.894816
 H         0.244147        -1.410839         0.377411
 H         0.530021        -0.769716        -1.284202
 H         1.867337        -1.164515        -0.219071
