19
Iteration:  3377
 C        -1.140209         2.165059         0.089929
 C         0.269823         1.837388         0.571486
 O         0.292086         2.028423         2.027681
 C         1.408265         1.151058         1.874089
 C         2.650564         1.861293         1.159253
 C         1.690768         1.867483         0.043696
 O         1.835523         2.398147        -1.237580
 C         0.974762         0.592654         0.418032
 C         0.953510        -0.673181        -0.259138
 H        -1.767686         1.626645         0.699921
 H        -1.258373         3.244968         0.102386
 H        -1.259519         1.951972        -0.972661
 H         1.448382         0.408287         2.640517
 H         2.978676         2.889478         1.473102
 H         3.526625         1.173201         0.961249
 H         2.207173         1.714720        -1.871751
 H         0.262495        -1.485824         0.226246
 H         0.819063        -0.390873        -1.340587
 H         2.003322        -1.197745        -0.341944
