19
Iteration:  1873
 C        -1.089759         2.241037        -0.162906
 C         0.221548         1.825194         0.563177
 O         0.404863         2.056998         1.884531
 C         1.550514         1.009757         1.893691
 C         2.609496         1.879771         1.164386
 C         1.577839         1.860282         0.009513
 O         1.751576         2.620812        -1.171601
 C         1.000056         0.525384         0.547802
 C         0.899173        -0.863851        -0.016671
 H        -1.864145         1.575796        -0.000572
 H        -1.344731         3.241260         0.285861
 H        -0.879391         2.318057        -1.322358
 H         1.599285         0.318116         2.735995
 H         3.083346         2.816129         1.550635
 H         3.456083         1.169429         0.733557
 H         2.336197         2.122221        -1.774044
 H         0.311047        -1.598724         0.548404
 H         0.400592        -0.697159        -0.956323
 H         1.864419        -1.455367        -0.210904
