19
Iteration:  1681charge 0 multiplicity 1
 C        -0.963919         2.429513        -0.093516
 C         0.237339         1.775237         0.572295
 O         0.322858         1.831616         2.021904
 C         1.577756         1.085254         1.882833
 C         2.517855         2.219421         1.196520
 C         1.667423         1.842830         0.016531
 O         1.728120         2.400389        -1.257397
 C         1.124941         0.487206         0.448791
 C         0.784988        -0.923415        -0.149074
 H        -2.005018         2.129879         0.333379
 H        -0.851931         3.516058         0.124910
 H        -0.984935         2.368500        -1.094160
 H         1.892728         0.580050         2.779666
 H         2.500742         3.280729         1.523212
 H         3.487364         1.770777         1.189996
 H         2.240016         1.788684        -1.792179
 H         0.190261        -1.445370         0.582034
 H         0.324916        -0.837007        -1.118984
 H         1.727283        -1.490968        -0.271442
