19
Iteration:   659charge 0 multiplicity 1
 C        -1.011898         2.157958        -0.142573
 C         0.226467         1.838593         0.635112
 O         0.346966         1.995183         2.100381
 C         1.460418         1.063699         1.828676
 C         2.635048         1.963805         1.111111
 C         1.616208         1.966920         0.021818
 O         1.755252         2.466157        -1.212646
 C         0.952871         0.548128         0.432546
 C         0.919632        -0.801320        -0.146133
 H        -1.796452         1.522126         0.355910
 H        -1.266104         3.257918        -0.171786
 H        -0.812871         1.743875        -1.130304
 H         1.798170         0.630731         2.861597
 H         2.758285         2.929242         1.558870
 H         3.582646         1.455172         1.072873
 H         2.567038         2.084961        -1.590186
 H         0.131620        -1.540440         0.366414
 H         0.622214        -0.753858        -1.186051
 H         1.882796        -1.184543        -0.242316
