19
Iteration:  1598
 C        -1.152294         2.146046         0.028974
 C         0.181619         1.826931         0.572895
 O         0.410279         2.101630         2.043585
 C         1.408460         1.117653         1.919615
 C         2.576495         1.855843         1.210460
 C         1.643846         1.849275         0.001332
 O         1.881406         2.490668        -1.398683
 C         1.034734         0.518472         0.525771
 C         0.908574        -0.771579        -0.201035
 H        -1.918774         1.441727         0.163179
 H        -1.459575         3.036539         0.513768
 H        -0.944962         2.392642        -1.152138
 H         1.602826         0.731929         2.920937
 H         2.879766         2.837192         1.541604
 H         3.500343         1.236322         0.969262
 H         2.697075         2.003144        -1.604084
 H         0.028151        -1.400434         0.081061
 H         0.611977        -0.434312        -1.222047
 H         1.814201        -1.452947        -0.244752
