19
Iteration:  3365
 C        -1.131410         2.149032         0.082668
 C         0.160760         1.931288         0.606615
 O         0.327598         2.053805         2.050913
 C         1.467602         1.083604         1.880628
 C         2.639181         1.959673         1.213025
 C         1.664478         1.887409        -0.023830
 O         1.907073         2.373843        -1.257020
 C         1.008702         0.596407         0.479167
 C         0.912238        -0.747571        -0.363117
 H        -1.825014         1.566615         0.541878
 H        -1.548069         3.141681         0.142293
 H        -1.098481         1.705770        -0.921983
 H         1.678399         0.429568         2.766803
 H         2.938252         2.863896         1.786198
 H         3.527048         1.298269         0.974842
 H         2.051913         1.630481        -1.842851
 H         0.017594        -1.412701        -0.071303
 H         0.610304        -0.684762        -1.462243
 H         1.932777        -1.313270        -0.132887
