19
Iteration:   727charge 0 multiplicity 1
 C        -1.094726         2.312580        -0.051734
 C         0.200903         1.781980         0.542864
 O         0.356466         1.793030         2.037836
 C         1.524578         1.033702         1.821287
 C         2.481845         2.072028         1.171897
 C         1.647983         1.941537         0.009321
 O         1.812264         2.398631        -1.298674
 C         1.074876         0.603339         0.410637
 C         0.923428        -0.747937        -0.042821
 H        -1.911505         1.735461         0.289974
 H        -1.150209         3.366066         0.332421
 H        -1.056635         2.405898        -1.184002
 H         1.908565         0.418396         2.594505
 H         2.316392         2.982411         1.619989
 H         3.517997         1.896237         1.112499
 H         2.644373         1.969527        -1.475668
 H         0.007175        -1.182619         0.520271
 H         0.865261        -0.887419        -1.147925
 H         1.745095        -1.369639         0.150719
