19
Iteration:  2764
 C        -1.179173         2.171588        -0.004011
 C         0.198351         1.788046         0.583226
 O         0.297142         1.766643         2.090884
 C         1.593148         1.058493         1.857116
 C         2.466230         2.102477         1.235512
 C         1.717031         1.941490        -0.045575
 O         1.945509         2.365055        -1.326577
 C         1.075323         0.682105         0.429008
 C         0.821832        -0.659785        -0.195310
 H        -1.936247         1.737960         0.584919
 H        -1.304100         3.279360         0.094802
 H        -1.278112         1.906185        -1.011100
 H         1.812486         0.418828         2.619449
 H         2.419868         3.118568         1.847297
 H         3.501183         1.688207         1.256815
 H         2.833221         2.072920        -1.654283
 H        -0.039784        -1.175505         0.160877
 H         0.690513        -0.554419        -1.236927
 H         1.802319        -1.244886        -0.230509
