19
Iteration:    42
 C        -1.062652         2.444449        -0.064359
 C         0.102971         1.724428         0.618166
 O         0.288076         1.819555         2.160104
 C         1.539975         1.056562         1.895154
 C         2.473177         2.206921         1.185629
 C         1.689230         1.856212        -0.033414
 O         1.837779         2.236121        -1.395107
 C         1.170478         0.526885         0.501278
 C         0.926763        -0.669679        -0.208375
 H        -1.958052         2.065901         0.375346
 H        -0.844370         3.469014         0.112663
 H        -0.988381         2.405094        -1.096162
 H         1.849027         0.369320         2.876433
 H         2.353203         3.228334         1.697360
 H         3.581038         1.895616         1.238855
 H         2.142732         1.435711        -1.864513
 H         0.491441        -1.372882         0.391354
 H         0.207395        -0.367959        -1.009436
 H         1.767211        -1.405414        -0.707988
