19
Iteration:  3114charge 0 multiplicity 1
 C        -1.015753         2.152834        -0.036747
 C         0.237798         1.876504         0.634644
 O         0.323426         2.043302         2.030604
 C         1.447756         1.035107         1.836065
 C         2.647493         1.933202         1.227660
 C         1.621140         1.860267        -0.004184
 O         1.771011         2.435405        -1.250610
 C         1.004158         0.580470         0.450857
 C         0.902705        -0.719305        -0.218462
 H        -1.784712         1.453032         0.340827
 H        -1.529822         3.174928         0.264007
 H        -0.846213         2.155553        -1.195574
 H         1.609529         0.389825         2.805513
 H         2.872567         2.829249         1.841951
 H         3.661077         1.542828         1.002118
 H         2.141216         1.877692        -1.937837
 H         0.124621        -1.416578         0.195596
 H         0.810093        -0.691151        -1.327816
 H         1.977808        -1.222982        -0.162313
