19
Iteration:  1294
 C        -1.088237         2.336614         0.011021
 C         0.242819         1.820627         0.520332
 O         0.289169         1.854577         1.984139
 C         1.535023         1.038757         1.807615
 C         2.544713         2.023458         1.088385
 C         1.601667         1.930830        -0.043241
 O         1.895829         2.475133        -1.234227
 C         0.977472         0.543765         0.425499
 C         0.911977        -0.820898         0.004717
 H        -1.726011         2.026389         0.716558
 H        -1.141177         3.383920         0.101044
 H        -1.450506         1.867256        -0.973070
 H         1.720647         0.352858         2.757685
 H         2.644365         2.973030         1.560783
 H         3.540202         1.556435         0.913030
 H         2.789986         2.069900        -1.429295
 H         0.214144        -1.491090         0.491528
 H         0.559073        -0.905755        -1.026413
 H         1.876226        -1.211424         0.091837
