19
Iteration:  3572charge 0 multiplicity 1
 C        -1.025214         2.169825         0.030608
 C         0.272036         1.845181         0.637414
 O         0.328997         1.870226         2.034052
 C         1.566107         1.071678         1.949236
 C         2.549332         2.136823         1.290413
 C         1.674193         1.964579        -0.010841
 O         1.833688         2.326196        -1.349794
 C         1.060131         0.599563         0.425065
 C         0.742122        -0.724365        -0.337390
 H        -1.835889         1.574652         0.638943
 H        -1.241625         3.351444         0.136202
 H        -1.111621         1.770078        -1.096859
 H         1.772635         0.517022         2.856059
 H         2.442041         3.053732         1.856634
 H         3.591231         1.726721         1.167096
 H         2.399447         1.553002        -1.638654
 H        -0.066998        -1.224896         0.017342
 H         0.443053        -0.457729        -1.358117
 H         1.639064        -1.392399        -0.360675
