19
Iteration:  1602
 C        -1.110136         2.178172         0.006251
 C         0.171639         1.780165         0.564052
 O         0.409471         2.114902         2.056360
 C         1.425512         1.125387         1.903960
 C         2.558061         1.842140         1.188819
 C         1.631511         1.857533        -0.018797
 O         1.874183         2.490118        -1.375945
 C         1.030208         0.535063         0.549894
 C         0.918585        -0.791434        -0.186112
 H        -1.824328         1.310088         0.100515
 H        -1.494918         3.120200         0.552910
 H        -1.033784         2.355822        -1.048522
 H         1.593237         0.503210         2.907756
 H         2.843132         2.836708         1.546163
 H         3.387946         1.256807         0.885097
 H         2.725013         2.052233        -1.587131
 H         0.009434        -1.330413         0.112233
 H         0.648400        -0.405827        -1.288613
 H         1.799042        -1.322909        -0.182176
