19
Iteration:  2978charge 0 multiplicity 1
 C        -1.108166         2.134403        -0.102066
 C         0.160523         1.800215         0.666708
 O         0.423119         2.014762         2.032800
 C         1.526870         1.074116         1.936178
 C         2.603744         1.878806         1.305009
 C         1.603983         1.912260        -0.004748
 O         1.805470         2.483276        -1.302414
 C         0.973394         0.579986         0.489010
 C         0.935721        -0.708929        -0.260128
 H        -2.118415         1.736954         0.234534
 H        -1.278744         3.246076        -0.096960
 H        -0.865126         1.897342        -1.146988
 H         1.765171         0.360907         2.759438
 H         2.809355         2.888656         1.821869
 H         3.596918         1.425827         0.969917
 H         2.051320         1.786053        -1.978858
 H         0.025465        -1.289669         0.038311
 H         0.861775        -0.431559        -1.440950
 H         1.837184        -1.260433        -0.216203
