19
Iteration:  1371
 C        -1.034816         2.230696        -0.202051
 C         0.179792         1.799496         0.671434
 O         0.416839         1.875982         2.157999
 C         1.540072         1.170522         1.963570
 C         2.554122         2.056058         1.228357
 C         1.566305         1.909667        -0.000709
 O         1.792651         2.258114        -1.349571
 C         1.083533         0.601356         0.532740
 C         0.793382        -0.664646        -0.288657
 H        -1.783726         1.599287        -0.011169
 H        -1.178410         3.262232         0.110162
 H        -0.673406         2.227245        -1.314835
 H         1.915772         0.577090         2.960192
 H         2.716306         3.043597         1.657218
 H         3.535838         1.612485         0.945055
 H         2.614692         1.808379        -1.582861
 H         0.098298        -1.300864         0.314340
 H         0.285770        -0.503989        -1.372024
 H         1.619953        -1.339527        -0.507943
