19
Iteration:  3389
 C        -1.113451         2.259120         0.001382
 C         0.163871         1.841046         0.568341
 O         0.329675         1.967965         1.963468
 C         1.491363         1.043074         1.940528
 C         2.599273         1.835516         1.180128
 C         1.654390         1.901417        -0.015855
 O         1.790518         2.417911        -1.282783
 C         1.011229         0.616657         0.509427
 C         1.007635        -0.674535        -0.229080
 H        -1.823497         1.818866         0.679297
 H        -1.291633         3.299897         0.253256
 H        -1.447644         1.964078        -0.971974
 H         1.729755         0.661010         2.879537
 H         3.084774         2.758245         1.651469
 H         3.386071         1.037041         1.095289
 H         2.482218         1.920377        -1.750714
 H         0.270933        -1.467170         0.252273
 H         0.538941        -0.597705        -1.224564
 H         2.066654        -1.058643        -0.236061
