19
Iteration:  3958charge 0 multiplicity 1
 C        -1.139258         2.192660         0.066822
 C         0.166012         1.875886         0.597157
 O         0.370244         1.945327         2.053925
 C         1.580868         1.010609         1.839055
 C         2.579568         1.972521         1.107399
 C         1.657465         1.900725        -0.021176
 O         2.015846         2.319447        -1.211066
 C         1.018561         0.588231         0.460353
 C         0.742556        -0.672720        -0.268146
 H        -1.942976         1.573100         0.536641
 H        -1.469871         3.246871         0.238381
 H        -1.217881         1.884788        -0.934830
 H         1.919991         0.363226         2.702995
 H         2.769336         2.968300         1.505449
 H         3.458506         1.480914         0.776686
 H         1.593377         3.175274        -1.346579
 H         0.039580        -1.259858         0.272240
 H         0.516684        -0.483368        -1.298478
 H         1.594083        -1.234506        -0.332596
