19
Iteration:  2798
 C        -1.082938         2.135690         0.017876
 C         0.286119         1.747917         0.520543
 O         0.292016         1.903914         1.965619
 C         1.536647         1.096816         1.866080
 C         2.504775         2.052655         1.208504
 C         1.633293         2.045103        -0.028422
 O         1.912123         2.508712        -1.211699
 C         1.101026         0.490089         0.452698
 C         0.769226        -0.841790        -0.183621
 H        -1.785407         1.628978         0.643536
 H        -1.165961         3.249921         0.173077
 H        -1.377821         1.957114        -0.961435
 H         1.783610         0.463979         2.715224
 H         2.698436         3.096680         1.692666
 H         3.456626         1.536783         0.925568
 H         2.842485         2.688396        -1.363512
 H         0.043615        -1.497926         0.313930
 H         0.330706        -0.556151        -1.146926
 H         1.626159        -1.514644        -0.320717
