19
Iteration:  3763
 C        -1.114231         2.049700        -0.109648
 C         0.216016         1.831760         0.689609
 O         0.308497         1.942382         2.100647
 C         1.621707         1.078123         1.930762
 C         2.694653         2.040427         1.203665
 C         1.645580         1.874049         0.077541
 O         1.820039         2.404107        -1.382351
 C         1.049995         0.558406         0.523845
 C         0.736139        -0.642662        -0.319171
 H        -1.983272         1.599439         0.350756
 H        -1.486419         3.162209        -0.117936
 H        -1.003009         1.871307        -1.113922
 H         1.790491         0.418636         2.830705
 H         2.879947         3.037190         1.768164
 H         3.626283         1.551040         0.905398
 H         2.765148         2.479093        -1.488436
 H        -0.126787        -1.211047        -0.096906
 H         0.386077        -0.316833        -1.247847
 H         1.592073        -1.242663        -0.256431
