19
Iteration:  4098
 C        -1.079078         2.421941         0.067743
 C         0.125148         1.885356         0.687295
 O         0.386124         1.908537         2.048223
 C         1.565216         0.937961         1.854097
 C         2.535184         1.915552         1.155396
 C         1.545662         1.946191        -0.028492
 O         1.890652         2.246247        -1.346214
 C         1.085286         0.591820         0.461619
 C         0.884678        -0.697270        -0.251652
 H        -1.980775         1.760401         0.343817
 H        -1.125726         3.322809         0.580205
 H        -0.805731         2.410690        -0.942628
 H         1.741287         0.332195         2.805235
 H         2.801662         2.851745         1.693939
 H         3.410456         1.342291         0.881517
 H         2.096372         3.180313        -1.506764
 H         0.033597        -1.282780         0.283332
 H         0.446552        -0.538837        -1.327618
 H         1.707155        -1.510645        -0.416058
