19
Iteration:   259
 C        -1.194230         2.228687        -0.062463
 C         0.183997         1.806316         0.536199
 O         0.346541         2.065314         2.003482
 C         1.513514         1.048838         1.864410
 C         2.609627         1.830223         1.178930
 C         1.630863         1.887079         0.013028
 O         1.791700         2.439573        -1.285143
 C         0.993410         0.605125         0.509821
 C         1.056953        -0.746624        -0.120612
 H        -2.151117         1.719246         0.369907
 H        -1.338282         3.321397         0.319204
 H        -1.124829         2.150998        -1.142254
 H         1.617860         0.618227         2.901336
 H         2.992508         2.723507         1.530592
 H         3.439203         1.186244         0.979813
 H         2.578256         1.963562        -1.581088
 H         0.370927        -1.590793         0.518218
 H         0.512661        -0.679709        -1.142397
 H         2.053307        -1.027625        -0.299483
