19
Iteration:  2595charge 0 multiplicity 1
 C        -1.067827         2.139828        -0.106246
 C         0.183493         1.775291         0.591041
 O         0.371705         1.870463         2.049409
 C         1.560742         1.053357         1.861891
 C         2.574994         2.025945         1.168518
 C         1.630404         1.977856         0.012680
 O         1.799700         2.506108        -1.208708
 C         1.038839         0.595224         0.483243
 C         0.841707        -0.719066        -0.168823
 H        -1.938239         1.538099         0.271089
 H        -1.196755         3.197224        -0.239302
 H        -1.018091         1.797286        -1.141837
 H         1.890907         0.330987         2.690629
 H         2.728137         3.037420         1.666794
 H         3.614910         1.621385         0.975959
 H         2.325123         2.050331        -1.879133
 H         0.025157        -1.222474         0.391092
 H         0.578070        -0.793966        -1.189792
 H         1.793572        -1.384067        -0.116310
