19
Iteration:  2968
 C        -1.083446         2.153557        -0.063509
 C         0.158508         1.829423         0.625577
 O         0.415009         2.006446         2.029837
 C         1.494180         0.994716         1.882708
 C         2.566419         1.908448         1.226884
 C         1.598830         1.945514         0.043016
 O         1.819896         2.416294        -1.282627
 C         1.007160         0.618909         0.494855
 C         0.969016        -0.617069        -0.276174
 H        -1.831652         1.505237         0.521344
 H        -1.421740         3.217499         0.000932
 H        -1.124827         1.814035        -1.098324
 H         1.438304         0.473870         2.762744
 H         2.888227         2.778241         1.797295
 H         3.457993         1.266048         1.011673
 H         2.104882         1.648477        -1.841139
 H         0.123805        -1.255022         0.089439
 H         0.903021        -0.637954        -1.442654
 H         1.872702        -1.193091         0.026901
