19
Iteration:  3162charge 0 multiplicity 1
 C        -1.063695         2.343647        -0.062832
 C         0.201973         1.774866         0.639372
 O         0.233439         1.868977         2.084132
 C         1.623457         1.100806         1.948236
 C         2.583951         2.115767         1.160232
 C         1.612033         1.923926         0.058509
 O         1.773149         2.187877        -1.242281
 C         1.086376         0.566944         0.488746
 C         0.895616        -0.669511        -0.358813
 H        -2.034270         2.034116         0.402582
 H        -1.078014         3.407141        -0.100056
 H        -1.012746         2.029470        -1.093829
 H         1.853798         0.518526         2.790968
 H         2.802677         3.167418         1.417086
 H         3.527322         1.604325         1.064306
 H         2.637519         1.850804        -1.554320
 H        -0.064587        -1.175439        -0.091718
 H         0.867955        -0.371575        -1.422388
 H         1.805909        -1.487875        -0.372818
