19
Iteration:  1970
 C        -0.997826         2.276385        -0.047493
 C         0.215263         1.757438         0.595543
 O         0.377027         1.880674         2.121070
 C         1.555102         1.146868         1.977239
 C         2.447495         2.159836         1.201526
 C         1.658091         1.784022        -0.088863
 O         1.809472         2.289384        -1.297950
 C         1.048364         0.559310         0.525232
 C         0.830511        -0.669998        -0.313002
 H        -1.763941         1.992889         0.609916
 H        -0.991333         3.351065        -0.067962
 H        -1.203995         1.840836        -1.127235
 H         1.881245         0.608063         2.928873
 H         2.429410         3.187392         1.512614
 H         3.514971         1.777730         1.279040
 H         2.368328         1.806829        -1.944633
 H        -0.064428        -1.243129        -0.057046
 H         0.710444        -0.388956        -1.297945
 H         1.746272        -1.453671        -0.221229
