19
Iteration:  4403
 C        -1.009474         2.394623        -0.015552
 C         0.237337         1.785318         0.599342
 O         0.367478         1.810470         2.101183
 C         1.590977         1.017532         1.755799
 C         2.574120         2.004205         1.235254
 C         1.625978         1.949773        -0.057461
 O         1.849499         2.323951        -1.340626
 C         1.093763         0.530880         0.424496
 C         0.666495        -0.735995        -0.119155
 H        -1.913925         2.079919         0.609749
 H        -1.081208         3.483547         0.186234
 H        -1.145812         2.175874        -1.025626
 H         1.982702         0.135722         2.297898
 H         2.637026         2.933255         1.821199
 H         3.555527         1.644116         1.055079
 H         1.930177         3.296722        -1.380792
 H        -0.062172        -1.175756         0.526739
 H         0.299252        -0.454737        -1.065239
 H         1.677137        -1.269294        -0.090552
