19
Iteration:   638charge 0 multiplicity 1
 C        -1.017136         2.143273        -0.218483
 C         0.222167         1.853803         0.615386
 O         0.373334         1.926829         2.078074
 C         1.574001         1.053763         1.953975
 C         2.598376         1.959886         1.300463
 C         1.578432         1.934433         0.017785
 O         1.681471         2.417939        -1.378003
 C         1.058017         0.620303         0.528982
 C         0.894282        -0.695546        -0.186442
 H        -1.935594         1.586360         0.088600
 H        -1.277042         3.244552        -0.213863
 H        -0.713287         1.800488        -1.206687
 H         1.803952         0.448080         2.907767
 H         2.851159         2.844152         1.769963
 H         3.435593         1.288485         1.130455
 H         2.571317         2.230600        -1.667175
 H         0.081639        -1.375140         0.482927
 H         0.202826        -0.528380        -1.050083
 H         1.895850        -1.118130        -0.598559
