19
Iteration:  1565
 C        -1.105843         2.179333        -0.000908
 C         0.224286         1.856643         0.565580
 O         0.338033         1.906052         2.052846
 C         1.455550         1.071330         1.813932
 C         2.623438         2.070658         1.200942
 C         1.630275         1.959192         0.055229
 O         1.887133         2.267392        -1.262625
 C         1.082688         0.601113         0.418172
 C         0.819766        -0.652326        -0.182821
 H        -1.881072         1.612050         0.460549
 H        -1.248826         3.225967         0.177769
 H        -1.176771         2.073469        -1.217591
 H         1.763339         0.480081         2.659171
 H         2.691992         3.054822         1.656042
 H         3.604259         1.544115         0.973237
 H         2.474949         1.591373        -1.582152
 H         0.082927        -1.208167         0.457371
 H         0.366587        -0.435432        -1.195100
 H         1.655634        -1.371908        -0.490339
