19
Iteration:  3300
 C        -0.976852         2.236699        -0.105556
 C         0.291001         1.785609         0.569138
 O         0.357010         1.808521         2.062526
 C         1.542768         1.092575         1.954331
 C         2.521173         2.123658         1.256486
 C         1.686973         1.924822        -0.006935
 O         1.765150         2.417273        -1.372191
 C         1.118493         0.496721         0.483632
 C         0.685738        -0.741566        -0.189962
 H        -1.788454         1.611190         0.200657
 H        -1.259494         3.196894         0.381336
 H        -0.906002         2.452294        -1.208914
 H         1.771061         0.645649         2.971022
 H         2.767646         3.071756         1.786740
 H         3.550130         1.648027         1.214881
 H         2.593329         2.426661        -1.865889
 H        -0.216951        -1.201504         0.408140
 H         0.266312        -0.597811        -1.240385
 H         1.532545        -1.522700        -0.247558
