19
Iteration:  3580
 C        -1.016369         2.236931        -0.050882
 C         0.237713         1.794087         0.583569
 O         0.328981         1.829543         2.087548
 C         1.566828         1.041042         1.857903
 C         2.565837         2.164393         1.247253
 C         1.600892         1.991759         0.063973
 O         1.847870         2.294113        -1.309175
 C         1.071857         0.574897         0.484803
 C         0.766912        -0.670287        -0.322797
 H        -1.750952         1.778677         0.598790
 H        -1.193563         3.200059         0.134734
 H        -1.114916         1.852085        -1.030186
 H         2.012491         0.546596         2.761684
 H         2.576089         3.115374         1.775946
 H         3.589648         1.843801         1.163911
 H         2.286636         1.551165        -1.789821
 H        -0.060647        -1.243112         0.204240
 H         0.378317        -0.519663        -1.365865
 H         1.620033        -1.326906        -0.291303
