19
Iteration:  2661
 C        -1.194821         2.420514        -0.059459
 C         0.121380         1.850550         0.596439
 O         0.307239         1.773560         2.079068
 C         1.552601         0.967727         1.782406
 C         2.541857         2.067682         1.167751
 C         1.636568         1.930002         0.000143
 O         1.817801         2.390220        -1.305212
 C         1.087905         0.539422         0.448866
 C         0.990568        -0.798906        -0.100367
 H        -2.075305         1.674689        -0.025211
 H        -1.416630         3.448334         0.243124
 H        -0.899430         2.532578        -1.165409
 H         1.866367         0.616038         2.874654
 H         2.739946         3.106699         1.606370
 H         3.568240         1.581055         1.034670
 H         2.789096         2.552026        -1.341223
 H         0.655915        -1.511476         0.671762
 H         0.520075        -0.780826        -1.070120
 H         2.103798        -1.201057        -0.260601
