19
Iteration:  2601
 C        -1.121819         2.171037        -0.111098
 C         0.214549         1.793040         0.546681
 O         0.382335         1.846936         2.019964
 C         1.593846         1.015812         1.859128
 C         2.562129         2.091037         1.208630
 C         1.639200         1.909723         0.020305
 O         1.815877         2.528591        -1.211375
 C         1.070998         0.553419         0.456313
 C         0.823161        -0.744471        -0.117073
 H        -1.923807         1.664546         0.404002
 H        -1.267777         3.325767        -0.020057
 H        -1.218988         1.885682        -1.182719
 H         1.803020         0.576782         2.812749
 H         2.625363         3.077176         1.609535
 H         3.507574         1.653434         1.018596
 H         2.303545         2.020391        -1.864337
 H         0.014199        -1.365055         0.318144
 H         0.517351        -0.769636        -1.271439
 H         1.781894        -1.179172        -0.130805
