19
Iteration:  3594charge 0 multiplicity 1
 C        -1.084047         2.314428        -0.105138
 C         0.155180         1.750158         0.630582
 O         0.350857         1.758624         2.116534
 C         1.629123         1.073518         1.856037
 C         2.519440         2.127273         1.178855
 C         1.611484         1.922982         0.016783
 O         1.836916         2.313436        -1.233596
 C         1.124773         0.624904         0.461301
 C         0.832997        -0.655250        -0.197933
 H        -2.151470         1.995904         0.193283
 H        -0.942870         3.445903        -0.153385
 H        -0.984005         2.069703        -1.276805
 H         1.851227         0.321965         2.563941
 H         2.593622         3.105551         1.629157
 H         3.470335         1.652739         0.812240
 H         2.177893         1.516084        -1.630174
 H         0.088887        -1.189367         0.237811
 H         0.412500        -0.299428        -1.148674
 H         1.709909        -1.302174        -0.446966
