19
Iteration:  2971
 C        -1.080759         2.142140        -0.083170
 C         0.148975         1.812426         0.648005
 O         0.428312         2.009462         2.022333
 C         1.503922         1.018959         1.893884
 C         2.571664         1.892785         1.256468
 C         1.596676         1.931139         0.033769
 O         1.817879         2.438328        -1.296596
 C         0.994560         0.611001         0.505532
 C         0.953457        -0.631243        -0.286989
 H        -1.905558         1.645402         0.490506
 H        -1.469811         3.194675         0.001999
 H        -1.036053         1.850581        -1.118225
 H         1.485086         0.429733         2.771383
 H         2.893041         2.738267         1.764438
 H         3.469765         1.394732         1.035210
 H         2.075264         1.697890        -1.892947
 H         0.101049        -1.179654         0.095974
 H         0.926772        -0.652364        -1.344401
 H         1.956192        -1.228751        -0.041704
