19
Iteration:  4431
 C        -0.992345         2.379084        -0.007051
 C         0.231068         1.825556         0.634247
 O         0.372208         1.852711         2.112515
 C         1.580189         1.097185         1.879709
 C         2.613541         1.980046         1.136880
 C         1.625691         1.902006        -0.017128
 O         1.913889         2.441786        -1.284551
 C         1.010657         0.502195         0.373481
 C         0.651832        -0.882498        -0.208214
 H        -1.921237         1.939797         0.329778
 H        -1.287443         3.429538         0.122629
 H        -0.893033         2.021260        -1.101621
 H         1.977253         0.451564         2.715661
 H         2.866212         2.966788         1.567757
 H         3.578024         1.469548         0.828206
 H         1.469477         3.329233        -1.356970
 H         0.101623        -1.367392         0.650630
 H         0.019483        -0.795961        -1.140481
 H         1.569007        -1.434791        -0.383897
