19
Iteration:  2953charge 0 multiplicity 1
 C        -1.148948         2.162190         0.049775
 C         0.242748         1.961177         0.558169
 O         0.278867         1.938027         2.049022
 C         1.449933         1.063565         1.856052
 C         2.593306         1.914008         1.183358
 C         1.637668         2.009964         0.046873
 O         1.842435         2.294242        -1.244721
 C         1.002355         0.647883         0.426367
 C         1.001121        -0.698401        -0.250328
 H        -1.901737         1.649986         0.634251
 H        -1.497312         3.184016         0.160958
 H        -1.137332         1.940482        -1.051739
 H         1.912978         0.249369         2.624798
 H         3.017762         2.916902         1.674297
 H         3.515279         1.306049         0.825579
 H         2.457642         1.609754        -1.600940
 H         0.083430        -1.304795        -0.091058
 H         1.037932        -0.417350        -1.327712
 H         1.920803        -1.197256        -0.174669
