19
Iteration:   449charge 0 multiplicity 1
 C        -1.050398         2.285292        -0.059190
 C         0.255670         1.885918         0.597399
 O         0.289325         1.825778         2.009114
 C         1.568102         1.034400         1.845459
 C         2.512410         2.164249         1.304398
 C         1.667687         1.962235         0.009786
 O         1.774010         2.315170        -1.316329
 C         1.187943         0.557504         0.447377
 C         0.833550        -0.796714        -0.167978
 H        -1.953061         1.898335         0.432900
 H        -1.187359         3.344644        -0.141928
 H        -1.242132         2.018320        -1.107135
 H         1.784601         0.333420         2.759606
 H         2.567699         3.145864         1.707632
 H         3.449067         1.705801         1.083257
 H         2.572388         1.814652        -1.649457
 H         0.107906        -1.241066         0.580069
 H         0.214128        -0.670553        -1.023480
 H         1.671471        -1.349947        -0.472400
