19
Iteration:  4982charge 0 multiplicity 1
 C        -1.102379         2.477849         0.043739
 C         0.193250         1.852218         0.664361
 O         0.414742         1.787406         2.124075
 C         1.590142         0.951729         1.838094
 C         2.516688         1.961112         1.194706
 C         1.651427         1.863375        -0.046504
 O         1.793474         2.304532        -1.369366
 C         1.062110         0.594732         0.424615
 C         0.883030        -0.703078        -0.232000
 H        -2.006279         1.972066         0.498214
 H        -1.088418         3.560437         0.178515
 H        -1.341419         2.350207        -1.006357
 H         1.912487         0.343858         2.732777
 H         2.553877         2.910372         1.791675
 H         3.521165         1.578577         0.936807
 H         1.814832         3.295237        -1.319464
 H         0.158253        -1.481546         0.209411
 H         0.499677        -0.470789        -1.281245
 H         1.813980        -1.149617        -0.478880
