19
Iteration:  3699charge 0 multiplicity 1
 C        -1.075864         2.280469        -0.071442
 C         0.170466         1.829969         0.634448
 O         0.369866         1.771049         2.092864
 C         1.578820         1.066020         1.821330
 C         2.508754         2.059203         1.151342
 C         1.642148         1.894383        -0.039383
 O         1.899014         2.466690        -1.267739
 C         1.004032         0.593626         0.411524
 C         0.830998        -0.750161        -0.128928
 H        -1.949156         1.677268         0.126809
 H        -1.421135         3.301114         0.478529
 H        -0.901384         2.330391        -1.115397
 H         1.854169         0.580919         2.790198
 H         2.644707         3.085463         1.568170
 H         3.479358         1.584255         1.037559
 H         2.325124         1.751362        -1.780825
 H         0.080076        -1.333844         0.518602
 H         0.599359        -0.852140        -1.215662
 H         1.771730        -1.239228         0.024061
