19
Iteration:  3212charge 0 multiplicity 1
 C        -1.132857         2.401620        -0.020295
 C         0.238110         1.845102         0.554465
 O         0.352224         1.879262         2.007625
 C         1.476161         1.097979         1.788656
 C         2.560382         2.000851         1.206025
 C         1.633395         1.924727         0.018018
 O         1.813676         2.422216        -1.213149
 C         1.052983         0.553426         0.387531
 C         0.946290        -0.897522        -0.126403
 H        -1.928087         1.868499         0.479950
 H        -1.260210         3.527739         0.032630
 H        -1.207194         2.151482        -1.137079
 H         1.549569         0.433569         2.746604
 H         2.772456         2.931835         1.790248
 H         3.509299         1.403067         0.950594
 H         2.530818         1.902660        -1.580961
 H         0.428649        -1.450054         0.674313
 H         0.498062        -0.973619        -1.123048
 H         1.852468        -1.357445        -0.261504
