19
Iteration:   511charge 0 multiplicity 1
 C        -1.015592         2.282311        -0.118830
 C         0.183832         1.800260         0.598444
 O         0.391576         2.008307         1.959142
 C         1.529628         1.043530         1.894042
 C         2.532262         1.966952         1.204755
 C         1.566071         1.861466         0.048925
 O         1.717795         2.472324        -1.225167
 C         0.953989         0.517379         0.509186
 C         1.003146        -0.799531        -0.169084
 H        -1.832697         1.688504         0.217060
 H        -1.078100         3.315093         0.265147
 H        -0.874177         2.278128        -1.231805
 H         1.781082         0.526512         2.787940
 H         2.895964         2.989100         1.501822
 H         3.417218         1.402287         0.858732
 H         2.493611         2.084982        -1.728676
 H         0.167258        -1.453574         0.089662
 H         1.021250        -0.786547        -1.307046
 H         1.903523        -1.426021         0.179352
