19
Iteration:  1985
 C        -1.055809         2.268085        -0.087816
 C         0.181117         1.798989         0.651522
 O         0.336969         1.917149         2.082582
 C         1.561371         1.092744         1.892529
 C         2.592836         2.040639         1.178721
 C         1.578071         1.949057         0.079001
 O         1.756949         2.298237        -1.323448
 C         1.073906         0.576527         0.502156
 C         0.898004        -0.716944        -0.252101
 H        -2.042508         1.888313         0.257716
 H        -1.033940         3.416985        -0.225704
 H        -0.942911         1.886967        -1.029798
 H         1.849221         0.532993         2.703826
 H         2.834907         3.023748         1.673998
 H         3.519232         1.491069         0.840952
 H         2.450663         1.636736        -1.574161
 H        -0.015228        -1.223873         0.095030
 H         0.897461        -0.471108        -1.384381
 H         1.715790        -1.365536        -0.083821
