19
Iteration:  3735charge 0 multiplicity 1
 C        -1.014192         2.116638        -0.007811
 C         0.316274         1.815842         0.599613
 O         0.360379         1.871685         1.994078
 C         1.552424         1.112936         1.919487
 C         2.513273         2.079673         1.297107
 C         1.652115         1.943407         0.053159
 O         1.761444         2.375743        -1.300986
 C         1.178999         0.544345         0.415036
 C         0.720090        -0.621503        -0.301259
 H        -1.779157         1.450729         0.496586
 H        -1.150655         3.204320         0.080378
 H        -0.965708         2.044235        -1.177610
 H         1.844070         0.658785         2.857288
 H         2.564822         2.953969         1.875769
 H         3.494247         1.591487         1.093032
 H         2.185144         1.645963        -1.769242
 H        -0.236919        -1.019686         0.257352
 H         0.284026        -0.502700        -1.379825
 H         1.483527        -1.507811        -0.146672
