19
Iteration:  1145charge 0 multiplicity 1
 C        -1.165297         2.242936         0.033634
 C         0.217187         1.825685         0.518338
 O         0.316257         1.871595         1.962039
 C         1.535917         1.082225         1.872579
 C         2.465147         2.058685         1.200601
 C         1.628871         1.844596        -0.054213
 O         1.944905         2.382984        -1.259136
 C         1.145644         0.601816         0.464195
 C         0.844398        -0.715591        -0.131406
 H        -1.890053         1.617383         0.680299
 H        -1.229512         3.284528         0.413931
 H        -1.416403         2.444428        -0.954292
 H         1.772073         0.410391         2.723681
 H         2.540092         3.038731         1.716260
 H         3.505217         1.608176         1.146533
 H         2.520979         1.902498        -1.852666
 H         0.418018        -1.312332         0.701931
 H         0.482085        -0.628913        -1.170446
 H         1.753761        -1.351532        -0.520664
