19
Iteration:  4305charge 0 multiplicity 1
 C        -1.033662         2.400547         0.126209
 C         0.201899         1.868213         0.565611
 O         0.324627         1.945835         2.102982
 C         1.485312         0.980665         1.900018
 C         2.646852         1.875351         1.175061
 C         1.640208         1.994581        -0.047656
 O         1.867633         2.218860        -1.402691
 C         1.027294         0.588250         0.525432
 C         0.848929        -0.741356        -0.283606
 H        -1.834214         1.533210         0.405511
 H        -1.291531         3.489662         0.412541
 H        -1.026143         2.503379        -0.970512
 H         1.567641         0.260228         2.771613
 H         2.976160         2.855737         1.665443
 H         3.542505         1.348599         0.825781
 H         1.310848         3.000010        -1.536190
 H         0.175345        -1.375518         0.172510
 H         0.534226        -0.401816        -1.204667
 H         1.867730        -1.081970        -0.299274
