19
Iteration:  3000
 C        -0.964645         2.230542        -0.188644
 C         0.232488         1.790007         0.633329
 O         0.329089         1.907742         2.082109
 C         1.554395         1.101279         1.906588
 C         2.577928         2.034183         1.149364
 C         1.631312         1.902394         0.040770
 O         1.740023         2.502640        -1.201096
 C         1.053168         0.506779         0.524676
 C         0.816198        -0.800354        -0.260586
 H        -1.808853         1.725618         0.346210
 H        -1.273814         3.284609        -0.082420
 H        -0.903606         1.964443        -1.238633
 H         1.762546         0.561541         2.831212
 H         2.853184         3.063965         1.550033
 H         3.534130         1.428993         0.964513
 H         2.346206         2.002083        -1.747853
 H         0.077825        -1.381886         0.311121
 H         0.472512        -0.650818        -1.364813
 H         1.716092        -1.366775        -0.341461
