19
Iteration:    67
 C        -1.016159         2.317418        -0.021709
 C         0.206863         1.813382         0.614220
 O         0.293663         1.928192         2.071221
 C         1.561578         1.150689         1.927316
 C         2.559468         2.079306         1.134607
 C         1.545059         1.944458         0.028816
 O         1.821068         2.289232        -1.272027
 C         0.974886         0.523605         0.434473
 C         0.927798        -0.807133        -0.258708
 H        -1.860364         1.872716         0.418122
 H        -0.984586         3.350801         0.232596
 H        -0.883166         2.273504        -1.103567
 H         1.701608         0.534285         2.743411
 H         2.750640         3.037946         1.603296
 H         3.489708         1.579485         0.948794
 H         2.447247         1.550594        -1.556441
 H         0.590749        -1.671931         0.292477
 H         0.488237        -0.794197        -1.246604
 H         1.996412        -1.099726        -0.443168
