19
Iteration:  3098
 C        -1.156502         2.238047        -0.066352
 C         0.211878         1.865562         0.541640
 O         0.381906         1.927892         1.979657
 C         1.545861         1.109649         1.935058
 C         2.574351         1.919946         1.200838
 C         1.665651         1.952081         0.042041
 O         1.832508         2.534669        -1.272696
 C         1.003173         0.556684         0.494353
 C         0.886274        -0.877999        -0.179787
 H        -1.828394         1.416556         0.208728
 H        -1.474246         3.154863         0.294493
 H        -1.119614         2.304442        -1.096344
 H         1.774820         0.559274         2.774426
 H         2.813858         2.916458         1.615513
 H         3.310552         1.139017         0.993065
 H         2.460123         1.942687        -1.685199
 H         0.242858        -1.496140         0.410069
 H         0.538142        -0.724790        -1.215249
 H         1.779330        -1.398614        -0.242724
