19
Iteration:  2696charge 0 multiplicity 1
 C        -0.971449         2.255367        -0.083952
 C         0.266424         1.793593         0.655071
 O         0.309339         1.980437         1.991652
 C         1.439206         1.015554         1.921418
 C         2.548643         1.940247         1.167616
 C         1.580043         1.922614         0.013195
 O         1.636342         2.424701        -1.269509
 C         1.021619         0.510881         0.532497
 C         1.048085        -0.708033        -0.221949
 H        -1.858660         1.608717        -0.040406
 H        -1.267274         3.164733         0.380797
 H        -0.727123         2.508721        -1.169135
 H         1.937754         0.598316         2.823809
 H         2.883359         2.880072         1.793871
 H         3.425525         1.244580         0.957841
 H         2.517907         2.180254        -1.642004
 H         0.453207        -1.551191         0.071089
 H         0.775438        -0.552095        -1.200674
 H         2.217315        -0.954710        -0.351315
