19
Iteration:  1672charge 0 multiplicity 1
 C        -0.885010         2.449024        -0.056066
 C         0.238416         1.733188         0.594967
 O         0.333860         1.798768         1.970644
 C         1.557366         1.089839         1.911383
 C         2.495704         2.175085         1.185180
 C         1.622144         1.880329        -0.020886
 O         1.718693         2.413088        -1.303933
 C         1.108610         0.503844         0.461096
 C         0.802527        -0.832457        -0.080567
 H        -1.863142         1.834566         0.299685
 H        -0.845568         3.512418         0.204754
 H        -0.833471         2.261877        -1.177790
 H         1.716934         0.457219         2.729691
 H         2.404341         3.166042         1.736660
 H         3.601367         1.805783         1.157679
 H         2.168877         1.734683        -1.792682
 H         0.045551        -1.417564         0.445485
 H         0.380757        -0.868407        -1.011419
 H         1.799737        -1.492195        -0.221888
