19
Iteration:  1634charge 0 multiplicity 1
 C        -1.082673         2.372744        -0.102709
 C         0.162772         1.858619         0.595892
 O         0.365110         1.848871         2.055103
 C         1.535886         1.135364         1.864898
 C         2.671601         1.980132         1.178215
 C         1.634789         1.928521         0.016770
 O         1.744743         2.381684        -1.264944
 C         1.013946         0.603389         0.434120
 C         0.889387        -0.884020        -0.090587
 H        -1.718293         1.539637        -0.122363
 H        -1.622072         3.344340         0.128515
 H        -0.864718         2.416755        -1.234179
 H         1.748850         0.438090         2.775105
 H         2.820580         2.948407         1.611532
 H         3.551871         1.463670         0.820511
 H         2.554499         2.049512        -1.676667
 H        -0.000125        -1.245366         0.450174
 H         0.793762        -0.805191        -1.270638
 H         1.760518        -1.403357         0.102478
