19
Iteration:  4208charge 0 multiplicity 1
 C        -0.984372         2.300219        -0.011910
 C         0.246885         1.871033         0.565057
 O         0.376572         1.893941         2.041619
 C         1.576500         0.968014         1.840317
 C         2.620504         1.866266         1.125621
 C         1.630202         1.949644         0.029611
 O         1.815477         2.443171        -1.296749
 C         0.994018         0.577490         0.468006
 C         0.698857        -0.751387        -0.123815
 H        -1.795128         1.641905         0.431291
 H        -1.205840         3.299923        -0.146490
 H        -0.900989         2.025777        -1.044022
 H         1.840819         0.296563         2.683822
 H         2.904377         2.690157         1.821691
 H         3.469942         1.277268         0.761921
 H         1.929034         3.411660        -1.317978
 H        -0.025370        -1.331384         0.460005
 H         0.314182        -0.512958        -1.119220
 H         1.702868        -1.200106        -0.183429
