19
Iteration:   129
 C        -1.057672         2.195133        -0.014166
 C         0.180102         1.886767         0.595859
 O         0.344953         1.985007         2.021182
 C         1.520155         1.068950         1.849932
 C         2.586857         1.941137         1.108788
 C         1.600349         1.961742        -0.043063
 O         1.802669         2.502469        -1.247335
 C         1.085734         0.606019         0.452365
 C         0.857652        -0.910620        -0.082351
 H        -1.854725         1.409575         0.126700
 H        -1.412370         3.261560         0.048170
 H        -0.906627         2.078118        -1.074230
 H         1.752557         0.398528         2.844429
 H         2.902762         2.923872         1.621289
 H         3.452729         1.215638         0.878456
 H         2.645854         2.000554        -1.496535
 H        -0.084377        -1.334666         0.213916
 H         0.805683        -0.758123        -1.198427
 H         1.749806        -1.599916         0.228000
