19
Iteration:   717charge 0 multiplicity 1
 C        -1.026261         2.314903         0.075310
 C         0.217811         1.813110         0.552046
 O         0.267414         1.825601         2.014158
 C         1.497929         1.008621         1.805318
 C         2.485470         2.140931         1.190706
 C         1.652473         1.913432        -0.060461
 O         1.844307         2.410428        -1.273180
 C         1.122103         0.582859         0.309107
 C         0.888863        -0.814635        -0.035782
 H        -1.805010         1.682261         0.400086
 H        -1.283642         3.358817         0.278317
 H        -1.156648         2.232189        -1.047743
 H         1.771731         0.562056         2.640597
 H         2.481251         3.037334         1.717683
 H         3.463921         1.721027         1.049061
 H         2.652396         2.081263        -1.709062
 H         0.050997        -1.405859         0.474458
 H         0.830736        -0.924608        -1.180518
 H         1.838383        -1.261506         0.461444
