19
Iteration:  4031
 C        -1.030667         2.391388        -0.106494
 C         0.222168         1.745473         0.618299
 O         0.444430         1.827377         2.073729
 C         1.590216         1.004630         1.856488
 C         2.609437         1.980717         1.188109
 C         1.620722         2.016336         0.032775
 O         1.763931         2.542779        -1.255416
 C         0.971786         0.510163         0.406686
 C         0.743418        -0.827196        -0.150790
 H        -2.148147         2.158655         0.172408
 H        -0.858287         3.392678         0.098419
 H        -0.994605         2.184151        -1.205432
 H         1.778163         0.255052         2.667455
 H         2.883845         2.945940         1.659441
 H         3.495183         1.385131         0.925260
 H         2.298274         1.848911        -1.714349
 H         0.200398        -1.311122         0.746020
 H         0.272174        -0.780808        -1.185897
 H         1.709483        -1.483726        -0.411742
