19
Iteration:  4071
 C        -1.022141         2.396373        -0.053334
 C         0.177227         1.919700         0.588155
 O         0.398418         1.853091         2.095009
 C         1.483131         1.035856         1.887495
 C         2.683635         1.929186         1.137083
 C         1.678859         1.832132        -0.001299
 O         1.713877         2.413015        -1.277917
 C         0.945442         0.550677         0.451080
 C         0.845743        -0.798910        -0.230790
 H        -1.719893         1.818844         0.471114
 H        -1.070985         3.442865         0.530951
 H        -0.918548         2.429874        -1.209524
 H         1.741687         0.507210         2.757689
 H         2.949829         2.924970         1.578373
 H         3.566442         1.210596         1.037018
 H         2.461628         3.021013        -1.402333
 H         0.215613        -1.508172         0.246413
 H         0.336910        -0.857574        -1.159033
 H         1.826328        -1.261508        -0.285119
