19
Iteration:  4304
 C        -1.045292         2.409138         0.125955
 C         0.206234         1.866031         0.568127
 O         0.326574         1.935924         2.098927
 C         1.487420         0.982297         1.907904
 C         2.648913         1.883961         1.181263
 C         1.640951         1.995024        -0.054466
 O         1.867749         2.221349        -1.404081
 C         1.021399         0.586665         0.522849
 C         0.847434        -0.751381        -0.284053
 H        -1.788624         1.527788         0.385004
 H        -1.279963         3.513546         0.371108
 H        -1.034486         2.515765        -0.956077
 H         1.592326         0.263052         2.811887
 H         2.990401         2.840229         1.681684
 H         3.529337         1.384143         0.797444
 H         1.344097         3.007928        -1.532512
 H         0.153739        -1.363917         0.193066
 H         0.512786        -0.402195        -1.189835
 H         1.886637        -1.102360        -0.310146
