19
Iteration:  3055
 C        -1.026869         2.338849        -0.043496
 C         0.254346         1.832649         0.539715
 O         0.325762         1.742077         2.062535
 C         1.524293         1.003227         1.792696
 C         2.498971         2.122622         1.198671
 C         1.652634         1.966397        -0.094720
 O         1.889522         2.484450        -1.280685
 C         1.060929         0.531112         0.364612
 C         0.758445        -0.871450         0.001528
 H        -1.814094         1.602824         0.203478
 H        -1.272596         3.332319         0.295841
 H        -1.006228         2.354032        -1.092622
 H         1.839622         0.528197         2.659860
 H         2.335038         3.075060         1.745385
 H         3.521695         1.698757         1.048221
 H         2.789669         2.806629        -1.388134
 H         0.500215        -1.399317         0.890698
 H         0.029608        -1.095417        -0.830355
 H         1.655254        -1.242530        -0.176433
