19
Iteration:  4444
 C        -1.047263         2.300735        -0.068958
 C         0.225637         1.818947         0.621861
 O         0.385674         1.922121         2.087011
 C         1.600602         1.026126         1.801194
 C         2.621624         1.919019         1.110041
 C         1.660832         1.894317        -0.045592
 O         1.888771         2.468121        -1.248076
 C         1.013965         0.587171         0.498726
 C         0.677887        -0.826042        -0.140264
 H        -1.772769         1.715964         0.448211
 H        -0.893716         3.373203         0.258728
 H        -1.123450         2.405062        -1.155923
 H         1.703935         0.342103         2.749392
 H         2.849396         2.878745         1.588272
 H         3.465354         1.240393         1.067389
 H         1.298706         3.214079        -1.360625
 H         0.049666        -1.757532         0.310502
 H         0.036979        -0.594136        -1.069446
 H         1.661167        -1.335497        -0.601213
