19
Iteration:  2156charge 0 multiplicity 1
 C        -1.087337         2.041202        -0.049876
 C         0.208497         1.851245         0.635404
 O         0.370543         2.054570         2.048972
 C         1.495120         1.178173         1.939231
 C         2.606373         1.869398         1.124569
 C         1.691680         1.877311         0.008069
 O         1.816625         2.590481        -1.220781
 C         1.004404         0.535505         0.459035
 C         0.835943        -0.827717        -0.249267
 H        -1.795745         1.491386         0.522989
 H        -1.518774         3.043911        -0.189586
 H        -1.079567         1.515293        -1.067556
 H         1.848935         0.881297         2.865072
 H         2.810663         2.780603         1.613514
 H         3.517189         1.336541         0.914050
 H         2.386157         2.221829        -1.941213
 H        -0.078147        -1.364966        -0.017196
 H         0.808725        -0.635049        -1.248842
 H         1.744560        -1.507610        -0.119715
