19
Iteration:  2890charge 0 multiplicity 1
 C        -1.035380         2.373366        -0.000159
 C         0.192072         1.810122         0.580647
 O         0.314768         1.816272         2.029410
 C         1.560382         1.112626         1.905198
 C         2.510949         2.133058         1.232903
 C         1.676959         1.904074         0.054118
 O         1.778529         2.347202        -1.264028
 C         1.046012         0.566805         0.421376
 C         0.890948        -0.877534        -0.275534
 H        -1.940619         1.711694         0.151651
 H        -1.098357         3.373022         0.416951
 H        -0.882454         2.529420        -1.122933
 H         1.819491         0.586538         2.840971
 H         2.367814         3.168964         1.535739
 H         3.526000         1.770104         0.987141
 H         2.681575         2.168669        -1.641036
 H         0.320318        -1.717546         0.251407
 H         0.442036        -0.789253        -1.369923
 H         1.858438        -1.321198        -0.333764
