19
Iteration:  4467charge 0 multiplicity 1
 C        -1.051696         2.297475         0.045073
 C         0.218490         1.853700         0.593823
 O         0.470361         1.975921         2.001070
 C         1.563400         1.030458         1.935493
 C         2.643785         1.808187         1.199639
 C         1.573228         1.902796        -0.034900
 O         1.853785         2.436480        -1.264544
 C         1.012683         0.602164         0.446440
 C         0.729711        -0.736320        -0.268341
 H        -1.718262         1.453211         0.199877
 H        -1.404253         3.348776         0.088459
 H        -0.845169         2.204809        -1.009364
 H         1.514271         0.491398         2.936313
 H         3.013283         2.682762         1.751381
 H         3.416691         1.144136         0.922369
 H         1.173488         3.085088        -1.597377
 H         0.271880        -1.462709         0.547263
 H         0.087031        -0.928772        -1.153457
 H         1.736227        -1.343092        -0.495457
