19
Iteration:   257charge 0 multiplicity 1
 C        -1.190620         2.221954        -0.060601
 C         0.191730         1.800635         0.534266
 O         0.338755         2.087325         2.003487
 C         1.523065         1.025060         1.868356
 C         2.602166         1.824916         1.162933
 C         1.634190         1.900649         0.035209
 O         1.799837         2.448026        -1.292003
 C         0.977323         0.587690         0.526711
 C         1.049064        -0.750282        -0.126443
 H        -2.153285         1.740034         0.352257
 H        -1.404267         3.306642         0.278958
 H        -1.107614         2.159573        -1.151138
 H         1.636951         0.627361         2.923498
 H         3.003290         2.750454         1.504739
 H         3.454277         1.207074         0.944543
 H         2.566443         1.987521        -1.611248
 H         0.394356        -1.609698         0.518579
 H         0.499341        -0.640649        -1.120803
 H         2.141407        -1.042637        -0.328390
