19
Iteration:  1835
 C        -0.899800         2.367142        -0.065584
 C         0.246143         1.847275         0.619748
 O         0.291847         1.819449         2.047434
 C         1.553010         1.060772         1.872558
 C         2.503593         2.078690         1.189494
 C         1.592724         1.944229        -0.032920
 O         1.750790         2.390587        -1.352799
 C         1.146174         0.508289         0.434117
 C         0.799169        -0.854673        -0.049835
 H        -1.764142         1.573052        -0.024044
 H        -1.347783         3.268341         0.364129
 H        -0.697453         2.615514        -1.017568
 H         1.656228         0.574584         2.858209
 H         2.581414         3.169090         1.338288
 H         3.447281         1.680647         0.989308
 H         2.713176         2.268961        -1.586385
 H        -0.097802        -1.260291         0.450336
 H         0.540560        -0.795231        -1.152954
 H         1.686349        -1.509756         0.035663
