19
Iteration:  4355charge 0 multiplicity 1
 C        -1.079115         2.325486         0.007344
 C         0.171354         1.834437         0.654297
 O         0.400387         2.008197         2.128866
 C         1.555886         0.997542         1.849737
 C         2.590823         1.916925         1.130251
 C         1.630041         1.926693        -0.049184
 O         1.874111         2.238846        -1.311987
 C         0.949279         0.544822         0.556378
 C         0.874532        -0.731353        -0.331361
 H        -1.940580         1.937107         0.488386
 H        -1.156652         3.355362         0.430255
 H        -1.188013         2.359348        -1.118865
 H         1.820121         0.435349         2.788996
 H         3.018177         2.767533         1.646117
 H         3.443162         1.257841         0.831579
 H         1.725136         3.187897        -1.436376
 H        -0.142354        -1.188153         0.032383
 H         0.590187        -0.119806        -1.260503
 H         1.825944        -1.360460        -0.298623
