19
Iteration:  1134charge 0 multiplicity 1
 C        -1.063928         2.298456         0.041818
 C         0.250355         1.821483         0.553629
 O         0.273355         1.832216         1.992998
 C         1.508275         1.064472         1.827249
 C         2.495615         2.138561         1.184446
 C         1.634270         1.940189        -0.019328
 O         1.947367         2.421988        -1.287222
 C         1.110646         0.510192         0.428145
 C         0.843182        -0.812420        -0.113528
 H        -1.845118         1.678708         0.625543
 H        -1.226558         3.315748         0.427852
 H        -1.368534         2.115704        -0.945170
 H         1.666473         0.453735         2.746175
 H         2.422330         3.164461         1.583366
 H         3.532635         1.843181         0.854384
 H         2.489356         1.651164        -1.623764
 H         0.099188        -1.476060         0.388389
 H         0.194803        -0.664299        -1.006117
 H         1.863964        -1.308291        -0.196225
