19
Iteration:   476charge 0 multiplicity 1
 C        -0.910395         2.292234        -0.152523
 C         0.169288         1.753934         0.690761
 O         0.289599         1.827082         2.073796
 C         1.580456         1.083968         1.927696
 C         2.540563         2.103582         1.229077
 C         1.651232         1.883985        -0.019583
 O         1.692156         2.373813        -1.352371
 C         1.051288         0.562613         0.503312
 C         0.892872        -0.713370        -0.178887
 H        -1.956868         2.012159         0.130830
 H        -0.933350         3.440221        -0.065754
 H        -0.877130         2.066469        -1.236653
 H         1.747603         0.490092         2.760208
 H         2.688543         3.198943         1.659497
 H         3.506074         1.488912         1.063941
 H         2.519575         2.009327        -1.773826
 H         0.082979        -1.203148         0.291829
 H         0.579164        -0.595992        -1.266673
 H         1.919034        -1.358394        -0.118256
