19
Iteration:  3570
 C        -1.039135         2.156859         0.055142
 C         0.271098         1.858799         0.647791
 O         0.331627         1.882932         2.023646
 C         1.565963         1.089165         1.963335
 C         2.540433         2.117882         1.300825
 C         1.700178         1.953367        -0.026704
 O         1.831283         2.333742        -1.357230
 C         1.064409         0.597562         0.408588
 C         0.744526        -0.730052        -0.334676
 H        -1.829005         1.559348         0.596037
 H        -1.227131         3.220232         0.055179
 H        -1.103700         1.842446        -1.020250
 H         1.697754         0.468847         2.892979
 H         2.438136         3.042089         1.846187
 H         3.542210         1.722338         1.162821
 H         2.418658         1.600288        -1.620000
 H        -0.116002        -1.257096         0.033491
 H         0.502602        -0.421936        -1.392744
 H         1.599817        -1.391622        -0.407541
