19
Iteration:  2255charge 0 multiplicity 1
 C        -0.950486         2.427016        -0.057612
 C         0.217727         1.745102         0.612186
 O         0.311394         1.918703         2.023643
 C         1.491389         1.049204         1.946256
 C         2.552913         2.122989         1.196618
 C         1.599204         1.878274         0.037601
 O         1.588542         2.304866        -1.280062
 C         1.118893         0.464473         0.480489
 C         1.038182        -0.806064        -0.251732
 H        -1.887219         1.894893        -0.138316
 H        -1.203218         3.422833         0.373010
 H        -0.652886         2.594977        -1.081424
 H         1.691478         0.592807         2.859281
 H         2.540324         3.074562         1.653158
 H         3.586960         1.762374         1.111380
 H         2.454077         2.258966        -1.698911
 H         0.574536        -1.649413         0.268460
 H         0.369160        -0.597876        -0.997863
 H         1.998695        -1.141207        -0.825787
