19
Iteration:  4876charge 0 multiplicity 1
 C        -1.120802         2.205596        -0.082576
 C         0.211256         1.835537         0.631367
 O         0.402538         1.898898         2.106946
 C         1.669313         0.922575         1.889217
 C         2.693457         1.871494         1.081588
 C         1.641571         2.000273         0.005235
 O         1.870595         2.448601        -1.347601
 C         0.921538         0.559271         0.580573
 C         0.731685        -0.642461        -0.226210
 H        -1.929075         1.609875         0.260411
 H        -1.608935         3.103466         0.340405
 H        -0.959511         2.263460        -1.201022
 H         1.982556         0.228348         2.747585
 H         2.972931         2.814752         1.615370
 H         3.614983         1.208264         0.986710
 H         1.321575         3.280340        -1.359098
 H         0.077649        -1.291718         0.341604
 H         0.210801        -0.302002        -1.100910
 H         1.675859        -1.135353        -0.350062
