19
Iteration:  2047
 C        -1.079991         2.304311        -0.022055
 C         0.176015         1.771802         0.555006
 O         0.321000         2.043902         1.945078
 C         1.533988         1.091716         1.870015
 C         2.596754         1.985353         1.149931
 C         1.582165         1.911177        -0.013873
 O         1.817933         2.542508        -1.225375
 C         0.979879         0.461723         0.512761
 C         0.946298        -0.971929        -0.118958
 H        -1.941841         1.709089         0.089307
 H        -1.256239         3.222879         0.595762
 H        -0.928999         2.674652        -1.110543
 H         2.005899         0.500549         2.624618
 H         2.718315         2.884738         1.667973
 H         3.544291         1.515153         0.855649
 H         2.387008         1.841688        -1.630069
 H         0.418153        -1.748489         0.433565
 H         0.592848        -0.991787        -1.069523
 H         2.103441        -1.260409        -0.185592
