19
Iteration:  3976charge 0 multiplicity 1
 C        -1.224915         2.257668         0.015242
 C         0.198230         1.818114         0.629396
 O         0.396985         1.875037         2.034985
 C         1.630731         1.054526         1.860200
 C         2.626892         2.013208         1.231637
 C         1.627840         1.982225         0.012348
 O         2.024888         2.399063        -1.297235
 C         1.054685         0.517927         0.406608
 C         0.710028        -0.742221        -0.240979
 H        -1.979400         1.769201         0.701442
 H        -1.296378         3.294443         0.148773
 H        -1.263251         1.954159        -1.060917
 H         1.746962         0.443085         2.749968
 H         2.826088         2.884313         1.859490
 H         3.564065         1.481343         0.979150
 H         1.306119         2.626294        -1.886986
 H        -0.135563        -1.288569         0.293560
 H         0.175370        -0.492613        -1.208953
 H         1.537675        -1.504564        -0.371881
