19
Iteration:  4740
 C        -1.112951         2.293313         0.097542
 C         0.278361         1.905742         0.693667
 O         0.403109         2.031362         2.089364
 C         1.482681         1.115604         1.884062
 C         2.615070         1.819020         1.167411
 C         1.621695         1.924308         0.082952
 O         1.808132         2.295801        -1.308446
 C         1.033091         0.527535         0.438048
 C         0.887566        -0.745096        -0.442556
 H        -2.000421         1.609333         0.238666
 H        -1.473194         3.311028         0.347917
 H        -0.812179         2.138480        -0.933237
 H         1.726081         0.605179         2.776659
 H         3.243046         2.687134         1.504165
 H         3.336553         1.065628         0.889548
 H         1.158189         3.018216        -1.416062
 H        -0.000892        -1.400651        -0.040177
 H         0.762957        -0.631444        -1.523319
 H         1.716031        -1.350967        -0.405264
