19
Iteration:  4221
 C        -1.025537         2.318895        -0.068248
 C         0.252350         1.814649         0.665480
 O         0.360220         1.863100         1.989757
 C         1.520071         0.947864         1.814787
 C         2.740278         1.929292         1.151700
 C         1.626890         1.930251        -0.020369
 O         1.759811         2.425912        -1.248731
 C         1.039439         0.614072         0.435619
 C         0.715120        -0.710559        -0.100280
 H        -1.940899         1.983336         0.342530
 H        -0.970799         3.329369         0.200151
 H        -0.987194         2.040054        -1.110684
 H         1.610153         0.214299         2.575720
 H         2.989082         2.938929         1.426969
 H         3.681774         1.405993         0.958706
 H         2.215601         3.280964        -1.054017
 H         0.026781        -1.306465         0.644326
 H         0.216370        -0.814799        -1.156556
 H         1.511198        -1.462307        -0.249350
