19
Iteration:  4517charge 0 multiplicity 1
 C        -1.089503         2.377354         0.120313
 C         0.147310         1.788739         0.635323
 O         0.408183         1.868140         2.108409
 C         1.581490         1.040053         1.860318
 C         2.525499         1.973255         1.196076
 C         1.631851         1.972240        -0.000660
 O         1.891755         2.186045        -1.361730
 C         1.041075         0.617803         0.442662
 C         0.802205        -0.672874        -0.325939
 H        -1.990800         1.857853         0.510232
 H        -1.099876         3.483621         0.137209
 H        -0.978586         2.213234        -1.053434
 H         1.970408         0.677239         2.846546
 H         2.796877         2.903687         1.741589
 H         3.399969         1.289619         0.882781
 H         2.126320         3.118930        -1.422897
 H        -0.030554        -1.244466         0.026978
 H         0.379203        -0.524853        -1.363263
 H         1.648397        -1.442075        -0.406379
