19
Iteration:  3256
 C        -1.029290         2.303248        -0.189380
 C         0.206667         1.861061         0.552606
 O         0.362214         1.902277         2.086019
 C         1.498667         1.058766         1.903891
 C         2.574054         1.899932         1.149608
 C         1.614468         1.942297        -0.014279
 O         1.793084         2.639610        -1.249848
 C         0.964656         0.562712         0.479750
 C         0.875076        -0.966351        -0.034901
 H        -1.787498         1.560990        -0.010729
 H        -1.402138         3.335160         0.065437
 H        -0.645045         2.379833        -1.270437
 H         1.950576         0.286548         2.670537
 H         3.114781         2.853716         1.397920
 H         3.471887         1.184346         0.979424
 H         2.382714         2.108015        -1.789338
 H         0.405725        -1.625119         0.768145
 H         0.362222        -0.995381        -1.037649
 H         1.897031        -1.314425        -0.331686
