19
Iteration:  1954charge 0 multiplicity 1
 C        -1.000700         2.273419         0.053968
 C         0.260023         1.743185         0.638513
 O         0.245721         1.917706         2.014821
 C         1.600021         1.142328         1.917407
 C         2.514400         2.209230         1.238422
 C         1.732270         1.828878         0.043343
 O         1.835902         2.312368        -1.373402
 C         1.100866         0.438292         0.510053
 C         0.760131        -0.752465        -0.317757
 H        -1.944068         2.103766         0.737496
 H        -0.988054         3.397607        -0.152578
 H        -1.167521         1.886469        -0.894946
 H         1.932613         0.642729         2.858378
 H         2.081244         3.184738         1.634090
 H         3.586419         2.232624         1.165924
 H         2.455834         1.669013        -1.722113
 H        -0.128048        -1.338014         0.000732
 H         0.417698        -0.340707        -1.408774
 H         1.543064        -1.350906        -0.505195
