19
Iteration:   577charge 0 multiplicity 1
 C        -1.138030         2.258383         0.007378
 C         0.161011         1.722638         0.561397
 O         0.325302         1.927870         2.086420
 C         1.553684         1.029263         1.880217
 C         2.472622         2.154735         1.216863
 C         1.616525         1.874192        -0.070538
 O         1.977669         2.399311        -1.326391
 C         1.083086         0.546543         0.440770
 C         0.853641        -0.749867        -0.158627
 H        -2.059679         1.750285         0.231550
 H        -1.170150         3.258178         0.457403
 H        -1.025476         2.429572        -1.118947
 H         1.873661         0.293450         2.684395
 H         2.542700         3.234640         1.635910
 H         3.497523         1.694662         1.121315
 H         2.545473         1.748989        -1.716583
 H         0.298972        -1.361922         0.422235
 H         0.347833        -0.587618        -1.140137
 H         1.767886        -1.354496        -0.286311
