19
Iteration:  3760charge 0 multiplicity 1
 C        -1.102530         2.062913        -0.104166
 C         0.230483         1.837601         0.688891
 O         0.289526         1.935185         2.100583
 C         1.614179         1.067826         1.922919
 C         2.695229         2.067016         1.217057
 C         1.666258         1.847770         0.048708
 O         1.801410         2.398571        -1.361771
 C         1.063284         0.558626         0.513496
 C         0.719358        -0.619455        -0.296276
 H        -1.915679         1.476447         0.479587
 H        -1.369564         3.090328        -0.099416
 H        -1.028589         1.877826        -1.204672
 H         1.688319         0.395269         2.798322
 H         2.887458         3.093025         1.660600
 H         3.650080         1.576781         0.984816
 H         2.766307         2.418646        -1.604743
 H        -0.178279        -1.223249        -0.125369
 H         0.404097        -0.204563        -1.311168
 H         1.699435        -1.337186        -0.298905
