19
Iteration:   618charge 0 multiplicity 1
 C        -0.981828         2.163502        -0.146716
 C         0.227664         1.732343         0.596837
 O         0.298190         1.906033         2.026007
 C         1.540325         1.120469         1.915073
 C         2.592579         2.087847         1.222286
 C         1.694172         1.946842         0.068827
 O         1.700012         2.318477        -1.234282
 C         1.176249         0.609859         0.521183
 C         0.762302        -0.683412        -0.253145
 H        -1.894442         1.722597         0.146253
 H        -1.182562         3.219919         0.054340
 H        -0.894532         2.012518        -1.229751
 H         1.695543         0.494026         2.648425
 H         2.751191         3.021761         1.748183
 H         3.510857         1.575710         0.883301
 H         2.481790         2.009997        -1.767537
 H         0.301164        -1.387153         0.439121
 H         0.040487        -0.492600        -1.093412
 H         1.774191        -1.128201        -0.599912
