19
Iteration:  2157
 C        -1.092438         2.042800        -0.054253
 C         0.196911         1.854721         0.623951
 O         0.371811         2.059266         2.057094
 C         1.492501         1.166857         1.937514
 C         2.607010         1.873841         1.124593
 C         1.694987         1.881626         0.012808
 O         1.819157         2.589367        -1.224261
 C         1.008661         0.535086         0.450688
 C         0.842174        -0.831583        -0.245901
 H        -1.778209         1.474661         0.567961
 H        -1.526459         3.078560        -0.185749
 H        -1.073573         1.523746        -1.019558
 H         1.839837         0.871815         2.843935
 H         2.821760         2.737031         1.633817
 H         3.509713         1.318893         0.919757
 H         2.347709         2.205891        -1.946517
 H        -0.076993        -1.331969        -0.029344
 H         0.805495        -0.642098        -1.215049
 H         1.772458        -1.509096        -0.099730
