19
Iteration:   565
 C        -1.125397         2.282011         0.021253
 C         0.125448         1.776250         0.595174
 O         0.316026         1.856949         1.975193
 C         1.528997         1.082222         1.779846
 C         2.545827         2.031296         1.172361
 C         1.598583         1.991758         0.018102
 O         1.956538         2.367736        -1.281286
 C         1.045446         0.604661         0.449053
 C         0.916633        -0.775995        -0.090708
 H        -1.878458         1.566173         0.326004
 H        -1.338241         3.237620         0.498616
 H        -1.195011         2.426232        -1.088993
 H         1.731744         0.487635         2.636215
 H         2.577448         3.057824         1.723814
 H         3.585611         1.665232         0.903967
 H         2.647597         1.721865        -1.592124
 H         0.229579        -1.198908         0.447574
 H         0.474597        -0.731310        -1.129879
 H         1.873326        -1.362338        -0.190588
