19
Iteration:  2285charge 0 multiplicity 1
 C        -1.051595         2.226814        -0.164154
 C         0.180946         1.839624         0.632422
 O         0.328244         1.858493         2.154020
 C         1.486683         1.029730         1.865665
 C         2.632598         1.916573         1.150315
 C         1.590327         2.025072         0.025125
 O         1.722864         2.402758        -1.292216
 C         0.989882         0.622846         0.419261
 C         1.033358        -0.674542        -0.109493
 H        -1.824911         1.525153        -0.239665
 H        -1.417856         3.147951         0.206919
 H        -0.587493         2.439940        -1.191547
 H         1.771669         0.495243         2.715030
 H         2.978344         2.798142         1.776570
 H         3.478934         1.221595         0.883805
 H         1.972242         1.681348        -1.894688
 H         0.795208        -1.441006         0.645220
 H         0.356601        -0.618649        -1.053931
 H         1.999754        -0.887613        -0.477500
