19
Iteration:  1520charge 0 multiplicity 1
 C        -0.958352         2.342030        -0.107682
 C         0.211375         1.762260         0.622672
 O         0.309454         1.846029         2.081379
 C         1.560953         1.087788         1.906209
 C         2.514111         2.169905         1.147052
 C         1.711642         1.878066        -0.002088
 O         1.791684         2.367523        -1.241884
 C         1.105607         0.545025         0.509851
 C         0.732001        -0.777839        -0.210383
 H        -1.929097         2.082098         0.425317
 H        -0.830233         3.392985        -0.294121
 H        -0.944205         1.813342        -1.154231
 H         1.716775         0.419386         2.666088
 H         2.554054         3.245299         1.476389
 H         3.539261         1.694472         1.092401
 H         2.358870         1.802086        -1.751837
 H         0.167194        -1.506692         0.411677
 H         0.229412        -0.663825        -1.153919
 H         1.685954        -1.411537        -0.547392
