19
Iteration:   310
 C        -1.032934         2.441390        -0.030229
 C         0.137486         1.670563         0.593453
 O         0.351912         1.825287         2.055366
 C         1.596436         1.080286         1.852044
 C         2.419672         2.182018         1.220646
 C         1.673895         1.854546        -0.016966
 O         1.808409         2.357334        -1.323695
 C         1.080988         0.535882         0.460100
 C         0.891904        -0.763783        -0.130763
 H        -1.926871         1.810782         0.163631
 H        -0.929879         3.534594         0.161274
 H        -0.872773         2.190230        -1.090901
 H         1.943583         0.516643         2.776241
 H         2.390302         3.273807         1.622602
 H         3.450249         1.792937         0.943272
 H         2.385004         1.729483        -1.746256
 H        -0.051699        -1.107940         0.219561
 H         0.777734        -0.815034        -1.207790
 H         1.752382        -1.491461         0.055351
