19
Iteration:  1329
 C        -1.128334         2.195060        -0.101320
 C         0.263141         1.815669         0.570932
 O         0.412411         2.032828         2.007442
 C         1.475536         1.089060         2.012371
 C         2.602982         1.871263         1.217597
 C         1.660215         1.944614         0.023750
 O         1.741358         2.471978        -1.285981
 C         1.028560         0.560269         0.423999
 C         0.875101        -0.782648        -0.182379
 H        -1.894497         1.646114         0.408150
 H        -1.251618         3.304025        -0.207926
 H        -1.124533         1.938891        -1.205956
 H         1.570565         0.486929         3.025605
 H         2.974299         2.810625         1.653831
 H         3.478564         1.191505         1.032379
 H         2.369373         1.915461        -1.835341
 H         0.347919        -1.391029         0.513167
 H         0.523128        -0.713827        -1.168897
 H         1.912577        -1.203243        -0.354560
