19
Iteration:  4386charge 0 multiplicity 1
 C        -1.047368         2.391892         0.027230
 C         0.221370         1.916544         0.594311
 O         0.351324         1.799240         2.120934
 C         1.575748         0.995307         1.869170
 C         2.639894         2.034343         1.187052
 C         1.720000         1.934214         0.012240
 O         1.807386         2.265990        -1.357533
 C         1.023968         0.629426         0.383048
 C         0.742285        -0.802894        -0.222357
 H        -1.951402         1.987501         0.541574
 H        -1.224813         3.469639         0.198623
 H        -1.146152         2.071142        -1.076668
 H         1.770604         0.457744         2.795968
 H         2.813396         2.998442         1.699451
 H         3.623530         1.473680         1.050782
 H         2.016989         3.227683        -1.435421
 H        -0.147666        -1.234525         0.350563
 H         0.405465        -0.739322        -1.314576
 H         1.491315        -1.581513        -0.254069
