19
Iteration:  1084charge 0 multiplicity 1
 C        -0.924222         2.219209        -0.180810
 C         0.295776         1.859188         0.636017
 O         0.318366         1.864212         1.993839
 C         1.542354         1.041836         1.867110
 C         2.579841         2.005780         1.124463
 C         1.627884         1.956614         0.021486
 O         1.640255         2.472633        -1.225351
 C         1.025674         0.533275         0.567393
 C         0.865615        -0.774528        -0.105695
 H        -1.884730         1.886292         0.228493
 H        -1.018169         3.314725        -0.081238
 H        -0.866226         1.923697        -1.319327
 H         1.708780         0.332121         2.633758
 H         2.878804         2.960393         1.651981
 H         3.440622         1.421692         0.952038
 H         2.501878         2.389374        -1.607334
 H         0.010138        -1.377175         0.225153
 H         0.719291        -0.632508        -1.210983
 H         1.704186        -1.331649         0.058377
