19
Iteration:  2722charge 0 multiplicity 1
 C        -1.104400         2.225376        -0.141131
 C         0.208083         1.757613         0.637925
 O         0.319059         1.957962         2.075188
 C         1.509330         1.141073         1.924617
 C         2.640219         1.992284         1.261107
 C         1.624556         1.877928         0.049130
 O         1.728545         2.411140        -1.226062
 C         1.046580         0.514625         0.470529
 C         1.001116        -0.704622        -0.347458
 H        -2.004401         1.700771         0.093037
 H        -1.385246         3.262012         0.211471
 H        -0.947843         2.205172        -1.160652
 H         1.973252         0.789899         2.768363
 H         2.829686         2.963036         1.727036
 H         3.518708         1.381031         1.139581
 H         1.966025         1.688467        -1.865044
 H         0.215857        -1.414011         0.002410
 H         0.742285        -0.518403        -1.448739
 H         1.915700        -1.240984        -0.319921
