19
Iteration:  2379
 C        -1.093718         2.122399        -0.094240
 C         0.178221         1.857871         0.624911
 O         0.298196         1.736799         2.130569
 C         1.623296         1.047685         1.812262
 C         2.610531         2.148934         1.244231
 C         1.647433         1.976737         0.027725
 O         1.826451         2.365681        -1.321265
 C         1.098764         0.640310         0.408103
 C         0.742151        -0.638933        -0.194431
 H        -2.069079         1.626068         0.347342
 H        -1.320473         3.177844        -0.259374
 H        -0.857275         1.606290        -1.106334
 H         2.108980         0.328605         2.728798
 H         2.644748         3.123709         1.773230
 H         3.609929         1.893961         0.937668
 H         2.780584         2.261773        -1.396468
 H        -0.127424        -1.109694         0.276721
 H         0.739107        -0.587265        -1.294326
 H         1.507697        -1.451430         0.084076
