19
Iteration:  3237
 C        -1.052433         2.311880        -0.141153
 C         0.174824         1.781962         0.666406
 O         0.261985         1.885844         2.059032
 C         1.500417         0.993827         1.795494
 C         2.622337         1.831038         1.118338
 C         1.636574         1.944334        -0.058369
 O         1.855813         2.632659        -1.317524
 C         0.963764         0.577516         0.499448
 C         0.959397        -0.803734         0.015339
 H        -2.037290         1.735631         0.181091
 H        -1.127771         3.392177         0.151696
 H        -0.930139         2.322677        -1.258458
 H         1.605447         0.592001         2.767435
 H         2.910678         2.650389         1.780468
 H         3.415110         1.214208         0.740838
 H         2.410314         1.982605        -1.804998
 H         0.595384        -1.371565         0.860336
 H         0.431956        -0.891398        -0.842842
 H         1.873263        -1.185860        -0.205793
