19
Iteration:  3862
 C        -1.010113         2.504575        -0.001373
 C         0.156557         1.789481         0.577378
 O         0.372611         1.770748         2.127848
 C         1.553361         1.040676         1.834363
 C         2.501160         2.135994         1.179077
 C         1.607304         1.857362        -0.037289
 O         1.874206         2.377445        -1.286698
 C         0.998537         0.499364         0.443289
 C         0.923904        -0.837565        -0.195723
 H        -2.044814         2.160478         0.064192
 H        -1.073240         3.591374         0.399247
 H        -0.924076         2.511425        -1.075678
 H         1.908485         0.431998         2.682984
 H         2.625048         3.152770         1.684862
 H         3.473627         1.628845         0.974376
 H         1.060910         2.323394        -1.813456
 H         0.403028        -1.599013         0.460509
 H         0.467920        -0.861211        -1.219518
 H         2.085906        -1.228268        -0.228025
