19
Iteration:  1140charge 0 multiplicity 1
 C        -1.113287         2.259804         0.037952
 C         0.262665         1.833258         0.556810
 O         0.295034         1.845092         1.971592
 C         1.518527         1.082309         1.845258
 C         2.472150         2.099406         1.188030
 C         1.615647         1.876297        -0.039567
 O         1.949103         2.400821        -1.264136
 C         1.141101         0.547044         0.441375
 C         0.842888        -0.751557        -0.110193
 H        -1.772632         1.718058         0.641391
 H        -1.246574         3.289238         0.426737
 H        -1.575890         2.380559        -1.056757
 H         1.652632         0.403533         2.701141
 H         2.449277         3.089411         1.643445
 H         3.480928         1.737608         0.960726
 H         2.514980         1.775264        -1.773258
 H         0.280849        -1.416058         0.542800
 H         0.348013        -0.613480        -1.096803
 H         1.786748        -1.287219        -0.367012
