19
Iteration:  4260charge 0 multiplicity 1
 C        -0.922630         2.386217         0.022751
 C         0.167587         1.846299         0.663626
 O         0.382050         1.825120         2.074050
 C         1.558323         0.952634         1.840771
 C         2.555895         2.061503         1.117751
 C         1.614351         1.887184         0.010183
 O         1.877883         2.397652        -1.389637
 C         0.990755         0.516219         0.443351
 C         0.731506        -0.827615        -0.163241
 H        -1.995813         2.099488         0.476581
 H        -1.022394         3.545570         0.303942
 H        -0.902415         2.373612        -1.073601
 H         1.693521         0.288103         2.788953
 H         2.551539         3.075993         1.656423
 H         3.544016         1.691428         0.808169
 H         2.339886         3.227735        -1.252812
 H         0.088036        -1.370429         0.458770
 H         0.198894        -0.625153        -1.026164
 H         1.695460        -1.383052        -0.337127
