19
Iteration:  3335
 C        -1.131869         2.159517        -0.029129
 C         0.126789         1.762613         0.585963
 O         0.386036         1.862831         2.107473
 C         1.579122         1.028341         1.859409
 C         2.581230         2.130567         1.189213
 C         1.604818         1.966641        -0.029798
 O         1.965408         2.315190        -1.283875
 C         1.080137         0.627618         0.528503
 C         0.747551        -0.601529        -0.259132
 H        -2.016089         1.477887         0.274703
 H        -1.248340         3.245232         0.171074
 H        -1.053432         1.990710        -1.126223
 H         1.862847         0.395744         2.643855
 H         2.558997         3.068757         1.784939
 H         3.528193         1.657649         0.881631
 H         2.415527         1.573045        -1.751951
 H        -0.231381        -1.044433         0.187392
 H         0.728558        -0.364847        -1.303139
 H         1.480328        -1.360940        -0.094083
