19
Iteration:  1960
 C        -1.007559         2.266238         0.020725
 C         0.264619         1.768864         0.632524
 O         0.269891         1.910280         2.057676
 C         1.612834         1.147174         1.964208
 C         2.478146         2.169655         1.203442
 C         1.720920         1.784254         0.000166
 O         1.825248         2.317565        -1.357626
 C         1.065666         0.496080         0.511609
 C         0.767048        -0.733263        -0.320932
 H        -1.811342         2.058901         0.636075
 H        -0.863040         3.360468        -0.062956
 H        -1.295883         1.876416        -1.028482
 H         1.979486         0.651941         2.851101
 H         2.039928         3.108981         1.508074
 H         3.610684         2.206453         1.360550
 H         2.430454         1.665205        -1.814507
 H        -0.119885        -1.304726        -0.056759
 H         0.652060        -0.267738        -1.244255
 H         1.730751        -1.425447        -0.506073
