19
Iteration:  3429
 C        -0.926476         2.467896        -0.044312
 C         0.207012         1.789582         0.626301
 O         0.327961         1.831133         2.116309
 C         1.564816         1.064323         1.846479
 C         2.474140         2.097700         1.126746
 C         1.603208         1.813956        -0.017550
 O         1.721457         2.378254        -1.250402
 C         0.961685         0.510709         0.391577
 C         0.942648        -0.805198        -0.171267
 H        -1.874583         1.978951         0.210310
 H        -0.850877         3.579784         0.035786
 H        -0.729600         2.217700        -1.137885
 H         1.990375         0.352375         2.615479
 H         2.332620         3.015704         1.653447
 H         3.445959         1.670916         0.870923
 H         2.677109         2.429132        -1.485978
 H         0.567809        -1.370558         0.617547
 H         0.380850        -1.031076        -1.103476
 H         2.028707        -1.095728        -0.242169
