19
Iteration:  3147
 C        -1.069209         2.283954        -0.141886
 C         0.154378         1.900904         0.657037
 O         0.332832         1.846039         2.094961
 C         1.573071         1.119390         1.922209
 C         2.672098         2.040613         1.261760
 C         1.540381         1.933404         0.074662
 O         1.747981         2.249877        -1.339837
 C         1.089355         0.562384         0.569348
 C         0.896677        -0.656613        -0.361137
 H        -1.900757         1.682412         0.267751
 H        -1.212960         3.450972        -0.140220
 H        -0.981521         1.905787        -1.261076
 H         1.884306         0.607870         2.953196
 H         2.792547         2.873652         1.943187
 H         3.422861         1.441933         0.746047
 H         2.425460         1.599502        -1.684147
 H         0.015224        -1.296460        -0.138702
 H         0.947248        -0.273141        -1.374156
 H         1.723521        -1.364427        -0.188843
