19
Iteration:  4012
 C        -0.971258         2.376580        -0.031228
 C         0.230623         1.886046         0.633660
 O         0.318017         1.784942         2.069235
 C         1.607346         0.996899         1.791699
 C         2.609681         2.000739         1.186799
 C         1.602207         1.868481        -0.082375
 O         1.848264         2.508900        -1.214462
 C         1.093984         0.604767         0.444547
 C         0.715795        -0.842998        -0.156357
 H        -1.854307         1.879648         0.484791
 H        -1.271911         3.417947        -0.133114
 H        -1.184912         2.047512        -1.001796
 H         1.854774         0.497375         2.785411
 H         2.686638         2.920992         1.729170
 H         3.575611         1.649711         0.979997
 H         1.746505         1.992619        -2.013070
 H         0.094153        -1.358073         0.564101
 H         0.222990        -0.621478        -1.119917
 H         1.512835        -1.442258        -0.407698
