19
Iteration:  1492charge 0 multiplicity 1
 C        -1.012801         2.318371        -0.144767
 C         0.235897         1.758422         0.557313
 O         0.388037         1.950046         1.990431
 C         1.516532         1.083392         1.877460
 C         2.595590         1.945266         1.242923
 C         1.667586         1.956852         0.007453
 O         1.661476         2.482827        -1.295343
 C         1.045121         0.540213         0.541439
 C         0.853440        -0.864804        -0.111925
 H        -1.873659         2.064534         0.402767
 H        -0.752362         3.412746        -0.145305
 H        -1.137083         2.045408        -1.198749
 H         1.585455         0.406288         2.859754
 H         2.822274         2.828972         1.829422
 H         3.461552         1.270125         1.160856
 H         2.523396         2.330377        -1.699316
 H         0.255823        -1.542198         0.497779
 H         0.444893        -0.862627        -1.203654
 H         1.750823        -1.355728        -0.283383
