19
Iteration:  4799
 C        -1.060615         2.536844         0.122340
 C         0.150155         1.849414         0.667853
 O         0.302210         1.826517         2.143618
 C         1.542276         1.014790         1.824733
 C         2.582284         1.977469         1.136153
 C         1.630165         1.883509        -0.016258
 O         1.791764         2.248863        -1.303744
 C         1.075250         0.555929         0.334909
 C         0.940141        -0.803986        -0.291705
 H        -1.999989         2.148904         0.634658
 H        -0.869345         3.706093         0.157553
 H        -1.082222         2.403801        -0.994643
 H         1.869341         0.365631         2.694703
 H         2.723425         3.015413         1.506721
 H         3.508975         1.569513         0.598265
 H         1.850412         3.206789        -1.255551
 H         0.408972        -1.409634         0.378027
 H         0.513102        -0.800484        -1.298743
 H         1.949723        -1.225390        -0.212705
