19
Iteration:  4890charge 0 multiplicity 1
 C        -1.068220         2.125132         0.011426
 C         0.223861         1.818560         0.691397
 O         0.467997         1.970109         2.100200
 C         1.532714         1.044899         1.882806
 C         2.646780         1.827152         1.146284
 C         1.587616         1.968731        -0.003718
 O         1.864798         2.462186        -1.308507
 C         1.053337         0.575617         0.456391
 C         0.686976        -0.667050        -0.259076
 H        -1.735880         1.236317         0.102341
 H        -1.389527         3.154478         0.288986
 H        -0.838404         2.221334        -1.111074
 H         1.685128         0.438884         2.760243
 H         3.147391         2.707401         1.669808
 H         3.353984         1.178338         0.618851
 H         1.316770         3.231747        -1.526574
 H        -0.009710        -1.305377         0.127229
 H         0.333333        -0.351603        -1.205132
 H         1.561013        -1.372149        -0.509067
