19
Iteration:  2298
 C        -1.080287         2.175199        -0.104741
 C         0.106390         1.827214         0.673679
 O         0.342876         1.924815         2.042654
 C         1.538001         0.992911         1.860568
 C         2.589061         1.898639         1.146622
 C         1.561934         2.010065         0.041706
 O         1.852123         2.480328        -1.286778
 C         1.035432         0.684072         0.502162
 C         0.999047        -0.697517        -0.143765
 H        -1.780154         1.406007        -0.054957
 H        -1.652199         3.062147         0.175364
 H        -0.835247         2.274094        -1.136444
 H         1.605411         0.205337         2.475920
 H         3.034192         2.805196         1.508263
 H         3.408654         1.248426         0.736035
 H         1.862021         1.606324        -1.755793
 H         0.550230        -1.372665         0.583656
 H         0.368433        -0.899964        -0.942451
 H         2.019145        -1.118432        -0.409821
