19
Iteration:   627charge 0 multiplicity 1
 C        -1.004919         2.160965        -0.200129
 C         0.187926         1.761872         0.625795
 O         0.353081         1.914401         2.046849
 C         1.529088         1.078733         1.922677
 C         2.608562         1.970001         1.270550
 C         1.632148         1.966350         0.017874
 O         1.668182         2.358739        -1.309848
 C         1.152587         0.590647         0.500954
 C         0.846375        -0.605691        -0.186913
 H        -1.907687         1.581561         0.133587
 H        -1.188575         3.273368        -0.169021
 H        -0.832664         1.968269        -1.253714
 H         1.791010         0.600484         2.913705
 H         2.741836         2.875430         1.767904
 H         3.575406         1.505483         1.129865
 H         2.579273         2.111865        -1.644658
 H         0.334007        -1.456892         0.576954
 H         0.185273        -0.265869        -1.013815
 H         1.651074        -1.266724        -0.658487
