19
Iteration:  3022charge 0 multiplicity 1
 C        -0.952493         2.295097        -0.116744
 C         0.215916         1.711223         0.598933
 O         0.295066         1.790870         2.020996
 C         1.598417         1.020756         1.837095
 C         2.533275         2.087297         1.212844
 C         1.655319         1.943754        -0.012545
 O         1.731499         2.464982        -1.279219
 C         1.147690         0.560177         0.433859
 C         0.752316        -0.758269        -0.069381
 H        -1.954033         1.895266         0.174221
 H        -1.022467         3.376601         0.006907
 H        -0.721536         2.115796        -1.145571
 H         1.694669         0.576437         2.753818
 H         2.643067         3.044246         1.791763
 H         3.559578         1.604458         1.149352
 H         2.699064         2.589062        -1.497574
 H         0.187847        -1.307195         0.686034
 H         0.174963        -0.664826        -1.046587
 H         1.599455        -1.279645        -0.370504
