19
Iteration:  4204charge 0 multiplicity 1
 C        -1.011450         2.288082        -0.037251
 C         0.258052         1.870020         0.600278
 O         0.399523         1.897426         2.080576
 C         1.579982         0.991009         1.825389
 C         2.577619         1.848380         1.149686
 C         1.646560         1.948468         0.015263
 O         1.835514         2.441698        -1.314229
 C         0.980852         0.608302         0.467983
 C         0.703281        -0.778240        -0.154112
 H        -1.759015         1.596270         0.448527
 H        -1.184752         3.454036        -0.087044
 H        -0.974425         1.971894        -1.124217
 H         1.819337         0.421623         2.760326
 H         2.942541         2.696062         1.809114
 H         3.428439         1.251564         0.763940
 H         1.826915         3.415605        -1.321277
 H         0.005193        -1.298180         0.459890
 H         0.371382        -0.545969        -1.137382
 H         1.644283        -1.333389        -0.259517
