19
Iteration:  3902
 C        -1.030581         2.310857        -0.025847
 C         0.217029         1.802647         0.573696
 O         0.377503         1.856416         2.024573
 C         1.542396         1.064215         1.856408
 C         2.633497         1.995043         1.184898
 C         1.585530         1.921020         0.069889
 O         1.713092         2.359574        -1.236910
 C         0.978246         0.573132         0.478894
 C         0.896168        -0.663961        -0.256300
 H        -1.856138         1.663900         0.324931
 H        -1.074667         3.309329         0.345992
 H        -0.679665         2.418545        -1.018591
 H         1.829729         0.356473         2.683355
 H         2.922450         2.945793         1.594522
 H         3.504104         1.435734         0.991936
 H         2.299087         1.767441        -1.797382
 H         0.130317        -1.301394         0.097750
 H         0.535995        -0.544327        -1.264966
 H         1.760155        -1.171559        -0.155175
