19
Iteration:  2912
 C        -1.104636         2.369327         0.090434
 C         0.138906         1.747895         0.601258
 O         0.329296         1.893109         2.018004
 C         1.542044         1.081727         1.836822
 C         2.451378         2.137268         1.193156
 C         1.567155         1.878376        -0.011283
 O         1.938784         2.266406        -1.308267
 C         1.068223         0.518853         0.529814
 C         0.978263        -0.747510        -0.317471
 H        -1.946657         1.751663         0.523371
 H        -1.068397         3.326135         0.617540
 H        -1.217436         2.505645        -1.032603
 H         1.675685         0.507570         2.783882
 H         2.306340         3.120848         1.678915
 H         3.462401         1.713062         0.977570
 H         2.889070         2.270697        -1.390155
 H         0.141991        -1.389528         0.123936
 H         0.641386        -0.423308        -1.422511
 H         1.825893        -1.403615        -0.310264
