19
Iteration:  1505
 C        -0.931371         2.336824        -0.127125
 C         0.233923         1.785284         0.567215
 O         0.323385         1.935118         1.961069
 C         1.571352         1.063290         1.906374
 C         2.574454         2.003804         1.239937
 C         1.567762         1.841970         0.026227
 O         1.690028         2.429309        -1.220661
 C         1.115681         0.490620         0.437067
 C         0.841927        -0.784931        -0.144453
 H        -1.899088         2.128410         0.467500
 H        -0.954605         3.491923        -0.229796
 H        -1.038978         1.935125        -1.043577
 H         1.902422         0.641273         2.924138
 H         2.636366         3.033754         1.722535
 H         3.563509         1.652749         0.956309
 H         2.474590         2.066519        -1.693971
 H         0.151172        -1.287094         0.525079
 H         0.210508        -0.538202        -0.988274
 H         1.745984        -1.429948        -0.368737
