19
Iteration:   580charge 0 multiplicity 1
 C        -1.148814         2.267016        -0.001400
 C         0.177679         1.727720         0.573449
 O         0.328030         1.924612         2.094071
 C         1.555836         1.055600         1.905621
 C         2.453088         2.161560         1.216679
 C         1.639267         1.871287        -0.080721
 O         1.969576         2.400449        -1.330212
 C         1.095684         0.525676         0.445558
 C         0.837005        -0.737119        -0.182689
 H        -2.073938         1.628813         0.236676
 H        -1.080694         3.298371         0.388904
 H        -0.948063         2.420877        -1.081118
 H         1.894911         0.253772         2.773739
 H         2.515844         3.149360         1.656936
 H         3.456354         1.770505         1.126618
 H         2.555300         1.751877        -1.798505
 H         0.205956        -1.563592         0.483816
 H         0.372370        -0.693007        -1.168638
 H         1.720009        -1.304828        -0.376937
