19
Iteration:   385
 C        -1.203389         2.102420        -0.135337
 C         0.172578         1.890777         0.607155
 O         0.396056         2.007097         2.032790
 C         1.524704         1.082444         1.874457
 C         2.625991         1.918943         1.191954
 C         1.695174         1.986851         0.028133
 O         1.841058         2.447908        -1.272575
 C         0.976089         0.622696         0.450487
 C         0.851458        -0.784968        -0.155133
 H        -1.941846         1.363905         0.316887
 H        -1.443832         3.105900         0.237875
 H        -1.054002         2.012524        -1.243819
 H         1.685522         0.456611         2.846991
 H         3.098664         2.862719         1.754075
 H         3.334241         0.995563         1.082616
 H         2.712254         2.154739        -1.655007
 H         0.412893        -1.552623         0.529282
 H         0.377348        -0.910844        -1.108656
 H         2.005421        -1.212497        -0.284780
