19
Iteration:   361charge 0 multiplicity 1
 C        -1.062361         2.206939        -0.126775
 C         0.236908         1.862196         0.616111
 O         0.342672         1.937922         2.012913
 C         1.554999         1.049334         1.874832
 C         2.605303         1.955766         1.232770
 C         1.635501         1.931430         0.023750
 O         1.691854         2.391913        -1.308508
 C         1.100724         0.583777         0.467717
 C         0.872938        -0.704434        -0.117036
 H        -1.831231         1.482548         0.100512
 H        -1.311429         3.203148         0.164731
 H        -0.740210         2.153417        -1.203913
 H         1.541455         0.483464         2.814083
 H         2.650207         2.930574         1.731949
 H         3.572120         1.496475         0.958162
 H         2.581226         2.075148        -1.630052
 H         0.026012        -1.326041         0.395273
 H         0.550913        -0.586303        -1.156544
 H         1.771779        -1.434159        -0.119492
