19
Iteration:  4021
 C        -1.058621         2.425374        -0.091410
 C         0.206068         1.834107         0.590848
 O         0.392603         1.786967         2.065489
 C         1.599346         1.007166         1.849573
 C         2.616314         1.993824         1.164909
 C         1.642037         1.944533         0.044292
 O         1.804105         2.537743        -1.233929
 C         1.071457         0.532928         0.417448
 C         0.715287        -0.843148        -0.145888
 H        -1.950411         1.936258         0.445349
 H        -1.092672         3.481724        -0.115016
 H        -0.921971         2.077307        -1.110413
 H         1.969302         0.347463         2.693421
 H         2.732144         2.945880         1.672905
 H         3.562614         1.561268         0.889707
 H         1.946661         1.803710        -1.840280
 H         0.045910        -1.522901         0.456848
 H         0.069961        -0.797699        -1.072576
 H         1.687658        -1.389874        -0.296308
