19
Iteration:  4246charge 0 multiplicity 1
 C        -1.019466         2.450958        -0.028176
 C         0.292570         1.807735         0.622256
 O         0.379231         1.792315         2.112899
 C         1.601023         1.053606         1.879297
 C         2.534761         1.952073         1.206797
 C         1.595128         1.954900        -0.098864
 O         1.829335         2.432795        -1.363490
 C         1.031599         0.533210         0.437065
 C         0.680559        -0.837475        -0.142515
 H        -1.886116         1.941404         0.265828
 H        -1.056768         3.590684         0.139095
 H        -0.882639         2.089134        -1.070134
 H         2.087648         0.472806         2.682261
 H         2.702162         2.876121         1.712313
 H         3.516833         1.484902         1.103143
 H         2.384054         3.270064        -1.304244
 H         0.081086        -1.577786         0.509943
 H         0.233651        -0.910263        -1.198025
 H         1.583268        -1.453906        -0.361712
