19
Iteration:  2232
 C        -0.968664         2.462248         0.062686
 C         0.182903         1.633377         0.554691
 O         0.298797         1.863555         1.991502
 C         1.606314         1.131780         1.926626
 C         2.424437         2.198293         1.219741
 C         1.558423         1.834533        -0.002360
 O         1.750953         2.308560        -1.323927
 C         1.072080         0.424399         0.485962
 C         0.986603        -0.781727        -0.254512
 H        -1.906457         2.074218         0.294583
 H        -0.904702         3.471164         0.545959
 H        -1.002932         2.630894        -1.062027
 H         1.941573         0.594834         2.723733
 H         2.351845         3.231114         1.518693
 H         3.481133         1.864512         1.225166
 H         2.699385         2.316363        -1.525460
 H         0.336722        -1.500367         0.281462
 H         0.511335        -0.687568        -1.214642
 H         2.037377        -1.226578        -0.403904
