19
Iteration:  1792charge 0 multiplicity 1
 C        -1.064744         2.304726         0.000281
 C         0.221016         1.811429         0.638518
 O         0.312411         1.866871         2.056198
 C         1.515912         1.123306         1.921176
 C         2.549890         2.123360         1.178534
 C         1.667992         1.922155        -0.019533
 O         1.881944         2.290851        -1.348918
 C         1.104589         0.574694         0.464714
 C         0.793460        -0.766881        -0.232713
 H        -1.925963         1.584219         0.286711
 H        -1.307125         3.322593         0.242599
 H        -0.910653         2.219251        -1.010755
 H         1.864749         0.588365         2.819833
 H         2.475707         3.070508         1.765323
 H         3.548691         1.743556         1.207459
 H         2.249407         1.452606        -1.738921
 H        -0.105045        -1.194492         0.198257
 H         0.555220        -0.594607        -1.283350
 H         1.686498        -1.457658        -0.235077
