19
Iteration:  3677
 C        -1.048311         2.343879         0.006253
 C         0.198575         1.824005         0.620622
 O         0.264673         1.905720         2.046851
 C         1.499304         1.046721         1.827087
 C         2.563303         1.914550         1.075591
 C         1.601906         1.963629        -0.019810
 O         1.834259         2.545085        -1.309749
 C         0.994902         0.527043         0.436078
 C         0.986639        -0.880321        -0.076739
 H        -1.894550         1.658705         0.105051
 H        -1.363716         3.326781         0.639484
 H        -0.807838         2.460035        -1.012153
 H         1.685885         0.352873         2.707685
 H         2.924205         2.844082         1.572767
 H         3.432964         1.322274         0.809068
 H         2.716326         2.138492        -1.464107
 H         0.352970        -1.532118         0.659329
 H         0.552887        -0.927644        -1.114587
 H         1.949310        -1.351598        -0.147970
