19
Iteration:   469charge 0 multiplicity 1
 C        -0.887670         2.288937        -0.116045
 C         0.207496         1.712698         0.621442
 O         0.298199         1.798664         2.075960
 C         1.548102         1.086130         1.912308
 C         2.524564         2.092653         1.200592
 C         1.644238         1.922363        -0.034822
 O         1.700615         2.340768        -1.342131
 C         1.048391         0.615958         0.492437
 C         0.893569        -0.667518        -0.150904
 H        -1.788792         1.894257         0.284970
 H        -0.866667         3.346436        -0.104924
 H        -0.963875         2.084861        -1.212123
 H         1.671944         0.444940         2.814913
 H         2.574075         2.957875         1.786860
 H         3.505261         1.719606         1.186849
 H         2.516681         1.980741        -1.708186
 H        -0.001756        -1.156541         0.460012
 H         0.530170        -0.577136        -1.190807
 H         1.787459        -1.175021        -0.177472
