19
Iteration:  2207
 C        -1.126562         2.355502         0.023537
 C         0.161558         1.867571         0.633280
 O         0.270727         1.752557         2.131003
 C         1.530113         1.108572         1.822058
 C         2.510033         2.101197         1.187774
 C         1.610970         1.959735        -0.008105
 O         1.873058         2.340267        -1.359578
 C         1.104080         0.589158         0.409842
 C         0.994053        -0.810452        -0.171815
 H        -1.999840         1.967466         0.577237
 H        -1.176395         3.418819         0.150511
 H        -1.352009         2.170694        -1.086709
 H         1.892303         0.233461         2.482717
 H         2.707093         3.200751         1.556491
 H         3.479719         1.592503         0.960922
 H         2.630991         1.842305        -1.760313
 H         0.100456        -1.337234         0.278522
 H         0.811442        -0.959926        -1.363313
 H         1.886585        -1.299676         0.086135
