19
Iteration:  3200charge 0 multiplicity 1
 C        -1.095599         2.388078        -0.006391
 C         0.147168         1.914577         0.563945
 O         0.301022         1.932985         1.993726
 C         1.531072         0.976158         1.889556
 C         2.555958         2.049679         1.262565
 C         1.645291         1.903524         0.013208
 O         1.823646         2.390877        -1.332651
 C         1.072429         0.496944         0.457080
 C         0.950400        -0.898401        -0.194707
 H        -1.870898         2.024761         0.611055
 H        -1.122985         3.502537         0.187455
 H        -1.302368         2.125944        -1.070292
 H         1.989792         0.452887         2.830754
 H         2.507533         3.066912         1.786740
 H         3.664713         1.730043         1.121421
 H         2.660252         2.023329        -1.738777
 H         0.204105        -1.554468         0.282049
 H         0.410782        -0.735667        -1.183319
 H         1.875064        -1.414363        -0.250072
