19
Iteration:   837
 C        -1.160284         2.207819        -0.001321
 C         0.136982         1.793880         0.545452
 O         0.292273         1.804028         2.035582
 C         1.575782         1.077795         1.882778
 C         2.589803         2.145740         1.246050
 C         1.683131         1.867828        -0.037227
 O         1.950832         2.427634        -1.384339
 C         0.988970         0.577434         0.510803
 C         0.862028        -0.719216        -0.153868
 H        -1.910284         1.720221         0.640380
 H        -1.197503         3.324626         0.192604
 H        -1.449452         2.124013        -1.120514
 H         1.821800         0.486795         2.708004
 H         2.647774         3.101868         1.711984
 H         3.613306         1.739698         1.093488
 H         2.729180         1.879685        -1.603910
 H         0.334155        -1.390140         0.564451
 H         0.332159        -0.598641        -1.186203
 H         1.767612        -1.141207        -0.355507
