19
Iteration:  4195charge 0 multiplicity 1
 C        -1.061096         2.263009        -0.103893
 C         0.228274         1.892084         0.707369
 O         0.456114         1.921694         2.153578
 C         1.533970         1.036717         1.854507
 C         2.595442         1.849785         1.203554
 C         1.645830         1.953059        -0.059950
 O         1.892835         2.422356        -1.334670
 C         0.982967         0.585743         0.410298
 C         0.728141        -0.781411        -0.229386
 H        -1.989062         1.827868         0.475968
 H        -1.242705         3.293973         0.197058
 H        -1.096497         1.948505        -1.142917
 H         1.801150         0.463948         2.807826
 H         3.002347         2.849225         1.599055
 H         3.442098         1.171372         0.980830
 H         1.552697         3.333462        -1.266074
 H        -0.005082        -1.280839         0.327056
 H         0.310143        -0.777463        -1.175931
 H         1.506225        -1.552367        -0.315112
