19
Iteration:  1765
 C        -1.135736         2.163287        -0.002165
 C         0.183122         1.792962         0.599882
 O         0.386632         2.070189         1.972717
 C         1.495664         1.127476         1.919126
 C         2.600550         1.885065         1.166869
 C         1.633791         1.884259         0.006231
 O         1.883777         2.378551        -1.265031
 C         0.999558         0.572087         0.520380
 C         0.895242        -0.665341        -0.236971
 H        -1.862666         1.587716         0.549502
 H        -1.457645         3.254349         0.127474
 H        -1.201759         1.897223        -1.190357
 H         1.685675         0.613036         2.882896
 H         2.817654         2.802081         1.736057
 H         3.556379         1.275189         1.153687
 H         2.167699         1.593107        -1.813867
 H         0.197320        -1.433427         0.173617
 H         0.514174        -0.435900        -1.347435
 H         1.888787        -1.070474        -0.292557
