19
Iteration:   792charge 0 multiplicity 1
 C        -1.083224         2.140634        -0.129982
 C         0.173338         1.809835         0.616665
 O         0.356058         2.024362         2.025932
 C         1.549864         1.098309         1.938698
 C         2.652685         1.914878         1.251585
 C         1.668981         1.977888         0.023458
 O         1.711329         2.397941        -1.294950
 C         1.001580         0.531515         0.563998
 C         0.928865        -0.724175        -0.259063
 H        -1.840951         1.415825        -0.003191
 H        -1.499600         3.168649        -0.002902
 H        -0.834691         2.211460        -1.251378
 H         1.742880         0.549349         2.856116
 H         2.650077         2.867939         1.728147
 H         3.651735         1.510349         1.236459
 H         2.412929         1.964708        -1.799990
 H         0.498699        -1.616563         0.282735
 H         0.337003        -0.419323        -1.130789
 H         1.789882        -1.019818        -0.687404
