19
Iteration:  3937
 C        -1.076231         2.152605         0.080639
 C         0.157869         1.889403         0.649793
 O         0.389296         1.970540         2.092342
 C         1.521413         1.067566         1.911329
 C         2.612864         1.885302         1.255868
 C         1.620961         1.973841        -0.039346
 O         1.889128         2.336275        -1.432310
 C         0.995230         0.620698         0.479646
 C         0.806697        -0.740139        -0.327758
 H        -1.923213         1.545386         0.329546
 H        -1.405183         3.226384         0.255761
 H        -1.057789         2.019604        -0.962927
 H         1.821403         0.365266         2.726173
 H         2.867324         2.855076         1.719324
 H         3.475242         1.282226         1.052022
 H         2.413442         3.151556        -1.212440
 H         0.050392        -1.310492         0.155902
 H         0.629495        -0.520285        -1.366529
 H         1.705153        -1.345253        -0.400131
