19
Iteration:  4793charge 0 multiplicity 1
 C        -1.036652         2.530613         0.108262
 C         0.173719         1.826052         0.717086
 O         0.316882         1.853563         2.158939
 C         1.543169         1.013912         1.818563
 C         2.572856         1.945736         1.159592
 C         1.528840         1.933795         0.016725
 O         1.822410         2.252346        -1.377751
 C         1.044074         0.572728         0.311536
 C         0.964110        -0.803137        -0.259734
 H        -1.903781         2.086655         0.525566
 H        -0.813404         3.547819         0.215888
 H        -1.118177         2.315849        -0.968381
 H         1.871455         0.393899         2.624611
 H         2.820213         2.907170         1.611013
 H         3.433131         1.465464         0.744476
 H         1.782543         3.227933        -1.321783
 H         0.262527        -1.538821         0.290774
 H         0.639438        -0.701635        -1.307607
 H         2.007735        -1.276582        -0.394902
