19
Iteration:  3546charge 0 multiplicity 1
 C        -1.177269         2.057531         0.026323
 C         0.227730         1.807336         0.566601
 O         0.362786         2.033280         2.028228
 C         1.488327         1.087132         1.897264
 C         2.633800         1.982027         1.202333
 C         1.724366         1.882524        -0.035100
 O         1.849217         2.406145        -1.282685
 C         1.071401         0.567090         0.517854
 C         0.790291        -0.635406        -0.303646
 H        -1.690472         1.324704         0.622477
 H        -1.424117         3.020119         0.250586
 H        -1.474343         1.945431        -0.995826
 H         1.751023         0.524591         2.869754
 H         2.771487         2.920524         1.759558
 H         3.447196         1.310364         1.098924
 H         2.816931         2.167404        -1.447554
 H        -0.208315        -1.108773         0.098593
 H         0.661476        -0.353999        -1.391424
 H         1.551631        -1.381856        -0.274861
