19
Iteration:   700charge 0 multiplicity 1
 C        -1.117775         2.291356         0.043819
 C         0.175304         1.812434         0.532020
 O         0.279165         1.836878         1.968842
 C         1.519860         1.136862         1.860613
 C         2.548220         2.040779         1.223961
 C         1.689752         1.988757        -0.015020
 O         1.864972         2.527474        -1.384603
 C         1.048008         0.524796         0.455446
 C         0.934629        -0.947355        -0.074089
 H        -1.943281         1.705567         0.600821
 H        -1.079527         3.375159         0.257078
 H        -1.310474         2.293528        -1.012611
 H         1.775077         0.270110         2.672052
 H         2.644375         3.119235         1.712522
 H         3.599158         1.622958         1.172234
 H         2.616221         1.964363        -1.585381
 H         0.058127        -1.278312         0.405852
 H         0.797113        -0.957517        -1.148151
 H         1.654050        -1.739309         0.227843
