19
Iteration:  2092
 C        -0.963328         2.245993        -0.075357
 C         0.293195         1.818425         0.615349
 O         0.254810         1.680485         2.112974
 C         1.529018         1.045843         1.794486
 C         2.525837         2.190172         1.242505
 C         1.755697         2.012506        -0.061987
 O         1.783049         2.314578        -1.401407
 C         1.045137         0.630968         0.432895
 C         0.753322        -0.734202        -0.045755
 H        -1.759372         1.563994         0.219612
 H        -1.231613         3.303842         0.330052
 H        -0.804332         2.273790        -1.128994
 H         1.765602         0.419448         2.557045
 H         2.393576         3.148360         1.637099
 H         3.623314         1.963452         1.268581
 H         2.736333         2.487044        -1.643337
 H         0.263087        -1.309395         0.723895
 H         0.072991        -0.681539        -0.806756
 H         1.759531        -1.245876        -0.391165
