19
Iteration:  3855
 C        -1.003322         2.502835         0.005681
 C         0.149630         1.776141         0.602318
 O         0.328629         1.763480         2.016461
 C         1.592272         1.024014         1.803631
 C         2.494400         2.082122         1.152658
 C         1.604303         1.903556        -0.008291
 O         1.881367         2.347765        -1.248318
 C         0.991979         0.575330         0.442322
 C         0.941911        -0.835625        -0.135910
 H        -1.872134         1.977019         0.450527
 H        -0.970558         3.495700         0.432347
 H        -0.840207         2.636198        -1.128954
 H         1.956411         0.458269         2.640144
 H         2.556608         3.047604         1.640831
 H         3.545881         1.776191         0.923937
 H         0.981593         2.477579        -1.652013
 H         0.400696        -1.665089         0.327813
 H         0.410103        -0.880712        -1.075878
 H         1.916719        -1.083090        -0.217380
