19
Iteration:  3285charge 0 multiplicity 1
 C        -0.997444         2.269988        -0.113449
 C         0.238690         1.706976         0.565160
 O         0.343030         1.974649         1.970134
 C         1.583946         1.015754         1.852304
 C         2.585993         2.016229         1.267692
 C         1.665237         1.871471        -0.008936
 O         1.695468         2.490323        -1.268878
 C         1.127583         0.555945         0.512125
 C         0.732744        -0.799647        -0.098210
 H        -1.821320         1.576956        -0.075023
 H        -1.172723         3.266480         0.265086
 H        -0.713637         2.430624        -1.136205
 H         1.850899         0.294593         2.645822
 H         2.455409         2.997409         1.716833
 H         3.623134         1.674942         1.117055
 H         2.615994         2.360383        -1.508486
 H         0.031787        -1.338005         0.528222
 H         0.374647        -0.408394        -1.119156
 H         1.590136        -1.563128        -0.392805
