19
Iteration:  3656
 C        -1.174511         2.426766        -0.065852
 C         0.159646         1.766760         0.487079
 O         0.417360         1.961761         1.929553
 C         1.538340         1.067411         1.915171
 C         2.628856         1.855177         1.272723
 C         1.633682         1.898578        -0.016688
 O         1.692466         2.530062        -1.236589
 C         0.989827         0.495355         0.405313
 C         1.007979        -0.870118        -0.074124
 H        -1.990228         1.784532         0.175340
 H        -1.240063         3.384324         0.562954
 H        -1.091236         2.620094        -1.116895
 H         1.714439         0.313671         2.729723
 H         2.970209         2.737545         1.825784
 H         3.498326         1.281949         0.968899
 H         2.558325         2.546749        -1.648510
 H         0.577988        -1.649750         0.726149
 H         0.519042        -0.971023        -1.105044
 H         2.007646        -1.220735        -0.313111
