19
Iteration:  4699
 C        -1.122620         2.284306         0.053737
 C         0.186366         1.884966         0.642108
 O         0.418312         1.821242         2.091726
 C         1.578304         0.999514         1.890503
 C         2.592216         2.070046         1.150623
 C         1.660047         1.934186        -0.015968
 O         1.909023         2.243879        -1.257495
 C         1.086020         0.619552         0.341881
 C         0.672026        -0.713932        -0.269452
 H        -1.892513         1.495237         0.383281
 H        -1.277354         3.443521         0.245892
 H        -1.017949         2.076911        -1.032233
 H         1.942895         0.401574         2.711653
 H         2.701384         3.037194         1.754862
 H         3.618665         1.642103         0.922352
 H         1.953372         3.226513        -1.370371
 H        -0.225441        -1.138864         0.235216
 H         0.375866        -0.358269        -1.292161
 H         1.459415        -1.453064        -0.444250
