19
Iteration:   957
 C        -1.083104         2.239075        -0.033496
 C         0.198925         1.845421         0.676343
 O         0.306442         2.000877         2.075416
 C         1.488689         1.050269         1.914840
 C         2.473924         1.980003         1.188586
 C         1.629754         1.942800        -0.019509
 O         1.829431         2.397725        -1.320755
 C         1.128047         0.525108         0.467701
 C         0.967834        -0.825292        -0.266504
 H        -1.922220         1.620656         0.286438
 H        -1.349684         3.249485         0.332405
 H        -0.924259         2.364553        -1.152420
 H         1.861222         0.668269         2.827770
 H         2.588046         2.998531         1.527790
 H         3.508375         1.528418         1.178592
 H         2.537210         1.876480        -1.789274
 H         0.313818        -1.414121         0.402430
 H         0.482691        -0.571774        -1.256523
 H         1.774478        -1.412996        -0.582967
