19
Iteration:  4837
 C        -0.992562         2.425248         0.128065
 C         0.247692         1.761237         0.636571
 O         0.356329         1.881388         2.071550
 C         1.557597         0.968811         1.880266
 C         2.527987         1.999838         1.192880
 C         1.591930         1.961126        -0.041308
 O         1.783320         2.367379        -1.391966
 C         1.107462         0.565612         0.412975
 C         0.820225        -0.804325        -0.260366
 H        -1.969733         1.990526         0.461983
 H        -0.786256         3.480053         0.328812
 H        -1.105678         2.286701        -0.951922
 H         1.731831         0.266561         2.652965
 H         2.675452         2.799451         1.931651
 H         3.473306         1.552923         0.936139
 H         1.970945         3.311233        -1.539264
 H         0.244558        -1.371330         0.611309
 H         0.187761        -0.966026        -1.156838
 H         1.717156        -1.496101        -0.560564
