19
Iteration:  4426
 C        -1.013116         2.389381        -0.000984
 C         0.231458         1.811314         0.665556
 O         0.386909         1.833688         2.072849
 C         1.555982         1.064860         1.904446
 C         2.603137         1.989147         1.142705
 C         1.639406         1.922258         0.012762
 O         1.915634         2.427196        -1.318157
 C         0.998778         0.482051         0.346493
 C         0.666685        -0.846643        -0.210302
 H        -1.941799         1.872265         0.399066
 H        -1.139012         3.496338         0.025212
 H        -0.766343         2.063722        -0.984122
 H         2.028875         0.537581         2.696939
 H         2.789830         2.993051         1.564146
 H         3.519566         1.594476         0.728779
 H         1.515651         3.306153        -1.273882
 H         0.091966        -1.173576         0.635770
 H        -0.029526        -0.773114        -0.998519
 H         1.605517        -1.478567        -0.217875
