19
Iteration:   290
 C        -1.071521         2.351052        -0.010219
 C         0.219430         1.895107         0.603303
 O         0.252747         1.872048         2.033336
 C         1.512811         1.016617         1.864547
 C         2.566787         2.052745         1.209944
 C         1.644286         1.999113        -0.056571
 O         1.777400         2.342965        -1.363268
 C         1.054484         0.569448         0.461888
 C         0.966480        -0.824398        -0.105401
 H        -1.828520         1.629387         0.453839
 H        -0.897601         3.412583         0.292510
 H        -1.082839         2.208264        -1.085579
 H         1.814367         0.432987         2.801429
 H         2.578303         3.041496         1.663288
 H         3.538350         1.611111         1.016870
 H         2.571702         1.768439        -1.537721
 H         0.071055        -1.588780         0.317238
 H         0.791949        -0.878821        -1.243240
 H         1.934342        -1.417231        -0.032664
