19
Iteration:  2409charge 0 multiplicity 1
 C        -0.981975         2.169763        -0.179158
 C         0.273812         1.787588         0.615327
 O         0.366904         1.966982         2.099835
 C         1.492003         1.057748         1.944894
 C         2.591692         1.998064         1.195996
 C         1.582514         1.959033         0.055914
 O         1.612661         2.463715        -1.295994
 C         1.087666         0.489632         0.540867
 C         0.889893        -0.769534        -0.275848
 H        -1.844143         1.548666         0.038039
 H        -1.091226         3.251931        -0.160235
 H        -0.695242         1.981174        -1.134974
 H         1.748347         0.467916         2.826703
 H         3.031414         2.908005         1.649918
 H         3.456225         1.402491         0.764419
 H         2.529679         2.810808        -1.278031
 H         0.090305        -1.381443         0.145072
 H         0.642756        -0.482448        -1.242670
 H         1.915342        -1.333437        -0.257543
