19
Iteration:  4347charge 0 multiplicity 1
 C        -1.200978         2.367273        -0.030726
 C         0.241318         1.873358         0.716420
 O         0.427020         2.020620         2.097663
 C         1.537393         1.021879         1.907020
 C         2.668527         1.884625         1.120864
 C         1.583541         1.929533         0.030940
 O         1.882390         2.240287        -1.310970
 C         0.947529         0.500543         0.555503
 C         0.855436        -0.729993        -0.353483
 H        -1.925360         1.670578         0.354280
 H        -1.180056         3.430246         0.231201
 H        -1.253300         2.498776        -1.074941
 H         1.777570         0.294899         2.760383
 H         2.986725         2.853882         1.546698
 H         3.514302         1.314749         0.828354
 H         1.581411         3.075341        -1.648850
 H         0.042212        -1.474764        -0.194953
 H         0.751621        -0.346514        -1.364516
 H         1.861209        -1.294490        -0.393232
