19
Iteration:  4223charge 0 multiplicity 1
 C        -1.037383         2.323494        -0.074545
 C         0.237513         1.804825         0.662045
 O         0.365711         1.857444         2.012910
 C         1.521379         0.957122         1.806806
 C         2.734042         1.940105         1.155234
 C         1.643003         1.911536        -0.006951
 O         1.757588         2.431572        -1.254762
 C         1.048586         0.632744         0.422173
 C         0.716253        -0.734404        -0.107776
 H        -1.902590         1.956093         0.343577
 H        -0.886605         3.395733         0.204598
 H        -1.028127         2.087388        -1.168352
 H         1.571852         0.264922         2.615109
 H         2.990611         2.925086         1.413091
 H         3.668024         1.399934         0.968861
 H         2.228843         3.238390        -1.079798
 H         0.020760        -1.263727         0.695414
 H         0.196556        -0.799225        -1.168475
 H         1.503065        -1.487510        -0.259413
