19
Iteration:   853charge 0 multiplicity 1
 C        -1.160740         2.287374         0.062807
 C         0.215126         1.719820         0.579450
 O         0.300476         1.860512         2.028754
 C         1.515499         1.129693         1.875577
 C         2.473196         2.093686         1.235250
 C         1.682973         2.010566        -0.048462
 O         1.934167         2.412973        -1.331809
 C         1.179038         0.563943         0.368783
 C         0.825955        -0.855662        -0.154815
 H        -2.042015         1.872336         0.599371
 H        -1.193084         3.356994         0.154217
 H        -1.200682         1.906777        -0.892270
 H         1.823029         0.521006         2.799377
 H         2.451192         3.119616         1.718647
 H         3.446594         1.609527         1.165057
 H         2.612088         1.979399        -1.823380
 H         0.077797        -1.459790         0.355890
 H         0.366933        -0.801626        -1.122145
 H         1.830156        -1.499042        -0.152725
