19
Iteration:  1744charge 0 multiplicity 1
 C        -1.245735         2.156756        -0.086699
 C         0.131685         1.950576         0.646376
 O         0.390884         2.095314         2.061335
 C         1.488877         1.093930         1.879315
 C         2.720226         1.845772         1.251346
 C         1.614428         1.888107         0.019695
 O         1.843194         2.363881        -1.283788
 C         1.004133         0.618890         0.470039
 C         0.938868        -0.757007        -0.244657
 H        -1.994052         1.617408         0.489271
 H        -1.517596         3.266446        -0.208728
 H        -1.253843         1.651657        -1.080752
 H         1.696934         0.491707         2.775833
 H         3.295157         2.733653         1.417011
 H         3.388740         1.045303         0.943042
 H         2.709012         2.055458        -1.624386
 H         0.452077        -1.554656         0.351030
 H         0.415010        -0.801555        -1.320072
 H         1.925751        -1.032109        -0.420115
