19
Iteration:   674charge 0 multiplicity 1
 C        -1.105323         2.213153        -0.059735
 C         0.159597         1.795101         0.585638
 O         0.353662         1.959950         1.949409
 C         1.569040         1.095244         1.889110
 C         2.530232         1.975158         1.148431
 C         1.586837         1.849238        -0.017282
 O         1.832731         2.530909        -1.191609
 C         1.049371         0.549376         0.494608
 C         0.934645        -0.790177        -0.115705
 H        -1.948069         1.741160         0.379921
 H        -1.147437         3.299746        -0.021033
 H        -1.102329         2.004849        -1.153553
 H         1.700906         0.436603         2.604989
 H         2.890033         2.930774         1.534827
 H         3.406144         1.402415         0.800138
 H         2.512844         2.066733        -1.675538
 H         0.159656        -1.336944         0.439767
 H         0.686168        -0.763193        -1.241938
 H         1.859197        -1.501499         0.091347
