19
Iteration:  1348
 C        -0.993171         2.167353        -0.142743
 C         0.231675         1.873448         0.691745
 O         0.297824         1.999485         2.048146
 C         1.569573         1.077451         1.790175
 C         2.625326         1.999665         1.159721
 C         1.618506         1.877922         0.017074
 O         1.758819         2.363023        -1.229940
 C         0.954049         0.567652         0.579093
 C         0.876457        -0.692366        -0.200321
 H        -1.731066         1.564425         0.218313
 H        -1.246884         3.186949        -0.086268
 H        -0.729437         1.899270        -1.244301
 H         1.748202         0.481445         2.786427
 H         2.961328         2.810408         1.755254
 H         3.469251         1.315190         0.926032
 H         2.428006         1.837435        -1.757833
 H         0.207608        -1.472092         0.260991
 H         0.321844        -0.340371        -1.211304
 H         1.764905        -1.157571        -0.485936
