19
Iteration:  4488
 C        -1.079863         2.285656         0.036237
 C         0.233335         1.896699         0.604429
 O         0.367768         2.003941         2.179941
 C         1.515904         0.996449         1.806617
 C         2.667744         1.876932         1.121465
 C         1.690948         1.906378         0.033776
 O         1.887526         2.320160        -1.304857
 C         0.954128         0.614543         0.476564
 C         0.790247        -0.741216        -0.285765
 H        -1.846553         1.557969         0.254056
 H        -1.426976         3.334052         0.169770
 H        -1.215754         2.234581        -1.049652
 H         1.840537         0.321686         2.671881
 H         2.973880         2.807174         1.641454
 H         3.495642         1.239565         0.867586
 H         1.359099         3.102905        -1.474803
 H         0.155976        -1.505711         0.294534
 H         0.363723        -0.613850        -1.283476
 H         1.651371        -1.318426        -0.624282
