19
Iteration:  3217
 C        -1.104158         2.390113        -0.020944
 C         0.216060         1.808033         0.540658
 O         0.342716         1.881192         1.996685
 C         1.495868         1.087792         1.832730
 C         2.585161         1.963046         1.192551
 C         1.608726         1.945664        -0.006074
 O         1.822227         2.445411        -1.190507
 C         1.032637         0.581863         0.358959
 C         0.935441        -0.844752        -0.082414
 H        -2.003156         1.780510         0.373591
 H        -1.183083         3.456860         0.032417
 H        -1.125253         2.127334        -1.058348
 H         1.570730         0.348913         2.543153
 H         2.780288         2.922959         1.633934
 H         3.316053         1.246198         0.965359
 H         2.515086         1.928316        -1.690439
 H         0.501304        -1.476007         0.700119
 H         0.399195        -1.043722        -1.032212
 H         2.046209        -1.318889        -0.170576
