19
Iteration:  2242charge 0 multiplicity 1
 C        -0.945835         2.428142        -0.013090
 C         0.166867         1.655387         0.561105
 O         0.347598         1.904250         1.974146
 C         1.545338         1.129311         1.909199
 C         2.415187         2.154225         1.225082
 C         1.600408         1.819107         0.022408
 O         1.664141         2.295205        -1.279395
 C         1.120682         0.499127         0.538768
 C         0.981560        -0.813830        -0.280206
 H        -1.848157         2.052246         0.294275
 H        -0.711695         3.221817         0.671181
 H        -0.805500         2.818517        -1.072992
 H         1.820247         0.573704         2.735019
 H         2.313795         3.158780         1.701660
 H         3.458916         1.863213         0.970404
 H         2.624957         2.362393        -1.510113
 H         0.558622        -1.638169         0.322059
 H         0.470960        -0.541114        -1.235072
 H         2.003054        -1.162194        -0.571896
