19
Iteration:   219charge 0 multiplicity 1
 C        -1.085023         2.190154        -0.139695
 C         0.176822         1.811035         0.647461
 O         0.360875         2.020529         2.083421
 C         1.530417         1.095284         1.957501
 C         2.568718         1.969126         1.138596
 C         1.625936         1.878645        -0.006929
 O         1.804504         2.405259        -1.254321
 C         1.020971         0.555035         0.462312
 C         0.880481        -0.749529        -0.185586
 H        -1.894057         1.580509         0.130051
 H        -1.247082         3.226901        -0.027365
 H        -0.886707         1.993641        -1.207796
 H         1.918595         0.577527         2.795756
 H         2.743174         3.040071         1.545685
 H         3.517499         1.365389         0.938546
 H         2.598469         2.098270        -1.752891
 H         0.512034        -1.431994         0.434365
 H         0.246693        -0.752894        -1.063554
 H         1.914488        -1.130484        -0.553092
