19
Iteration:   914
 C        -0.926822         2.238778        -0.150689
 C         0.237929         1.822525         0.624865
 O         0.282757         1.950705         2.089989
 C         1.539631         1.018706         1.906765
 C         2.582898         1.935528         1.141772
 C         1.567337         1.998580         0.016276
 O         1.642195         2.486903        -1.267395
 C         1.081329         0.596865         0.474470
 C         0.941968        -0.835048        -0.128510
 H        -1.885446         1.641747         0.085953
 H        -1.307114         3.294427        -0.155204
 H        -0.625377         2.027477        -1.261297
 H         1.680907         0.383626         2.745354
 H         3.063931         2.734543         1.676016
 H         3.438336         1.294353         0.722321
 H         2.459296         2.127513        -1.634518
 H         0.108704        -1.443866         0.290577
 H         0.857068        -0.661213        -1.293404
 H         1.803485        -1.331335         0.032636
