19
Iteration:   684
 C        -1.200047         2.294882        -0.052108
 C         0.189213         1.702148         0.515377
 O         0.342740         1.928367         1.991054
 C         1.539335         1.064750         1.898990
 C         2.570146         2.008416         1.201139
 C         1.605468         1.954453        -0.061228
 O         1.870781         2.540736        -1.274796
 C         1.098798         0.491698         0.493718
 C         0.893665        -0.842483        -0.056280
 H        -1.966211         1.848173         0.497730
 H        -1.193990         3.360412         0.202110
 H        -1.243413         2.062277        -1.145977
 H         1.738040         0.680961         2.798180
 H         2.844247         2.891753         1.712664
 H         3.446995         1.440603         0.919293
 H         2.510502         2.150035        -1.846831
 H        -0.027245        -1.457843         0.288232
 H         0.874098        -0.826009        -1.220808
 H         1.935022        -1.366738         0.040435
