19
Iteration:   573charge 0 multiplicity 1
 C        -1.107199         2.256010         0.006632
 C         0.137336         1.726319         0.557640
 O         0.322927         1.916157         2.060488
 C         1.545593         1.017109         1.834274
 C         2.507535         2.132544         1.213011
 C         1.593537         1.895382        -0.039166
 O         1.977926         2.396597        -1.315475
 C         1.066706         0.584558         0.448582
 C         0.893193        -0.764249        -0.150786
 H        -2.083105         1.820056         0.256800
 H        -1.320005         3.223679         0.535022
 H        -1.154618         2.410316        -1.050501
 H         1.822314         0.402964         2.603610
 H         2.538594         3.152696         1.575255
 H         3.502894         1.663279         1.082712
 H         2.601030         1.689072        -1.666010
 H         0.143963        -1.287034         0.563784
 H         0.349825        -0.505278        -1.069892
 H         1.844379        -1.375447        -0.214939
