19
Iteration:  1586charge 0 multiplicity 1
 C        -1.182557         2.156193         0.030154
 C         0.236998         1.887768         0.607161
 O         0.335684         2.030169         1.950477
 C         1.536892         1.113305         1.984793
 C         2.631855         1.954927         1.216667
 C         1.668454         1.902994        -0.044030
 O         1.882232         2.385401        -1.299615
 C         0.989579         0.555005         0.497021
 C         0.823903        -0.762267        -0.260995
 H        -1.885265         1.347057         0.291004
 H        -1.525317         3.096081         0.372595
 H        -1.205743         2.296457        -1.163102
 H         1.729462         0.596669         2.895956
 H         2.928207         2.860444         1.773428
 H         3.472219         1.193132         1.205196
 H         2.607393         1.999584        -1.865347
 H         0.118638        -1.437049         0.268474
 H         0.622781        -0.639357        -1.311291
 H         1.884048        -1.277114        -0.270147
