19
Iteration:   110charge 0 multiplicity 1
 C        -1.084848         2.165762        -0.061572
 C         0.207078         1.866870         0.532115
 O         0.368867         2.022070         2.009032
 C         1.467286         1.050421         1.879434
 C         2.686863         1.826246         1.236789
 C         1.644823         1.957677        -0.022470
 O         1.733652         2.475075        -1.322245
 C         0.921517         0.570265         0.479826
 C         0.936945        -0.750059        -0.101780
 H        -1.727116         1.468653         0.371503
 H        -1.392082         3.103617         0.250823
 H        -1.224997         2.209997        -1.107927
 H         1.709367         0.482990         2.746753
 H         3.120287         2.749780         1.700176
 H         3.513556         1.167767         0.910163
 H         2.666115         2.404767        -1.690956
 H         0.242614        -1.358563         0.391827
 H         0.840378        -0.792706        -1.190876
 H         1.941824        -1.256482         0.298787
