19
Iteration:  3725
 C        -1.026493         2.186086        -0.038899
 C         0.222482         1.796797         0.603225
 O         0.336027         1.889102         2.007319
 C         1.646631         1.028046         1.927972
 C         2.576000         2.119793         1.373997
 C         1.590129         1.994142        -0.014451
 O         1.803493         2.388615        -1.320331
 C         1.208852         0.575275         0.404859
 C         0.684478        -0.733261        -0.259577
 H        -1.894156         1.566582         0.382329
 H        -1.236768         3.178453         0.278886
 H        -1.025895         2.001387        -1.189416
 H         1.660497         0.484626         2.850573
 H         2.688127         3.057326         1.854663
 H         3.575892         1.742890         1.057618
 H         2.027222         1.563890        -1.803607
 H        -0.213806        -1.121195         0.308351
 H         0.549783        -0.551008        -1.381866
 H         1.512992        -1.592959        -0.333270
