19
Iteration:  4541
 C        -1.046015         2.404133         0.116668
 C         0.205634         1.880521         0.666285
 O         0.340982         1.828969         2.071842
 C         1.557333         1.009748         1.859547
 C         2.632969         2.096658         1.187638
 C         1.674613         1.859062         0.029949
 O         1.817813         2.163922        -1.348723
 C         1.016953         0.611734         0.425195
 C         0.801417        -0.724053        -0.328698
 H        -1.828045         1.964256         0.744228
 H        -1.049278         3.548009         0.205523
 H        -1.291299         2.376547        -1.041024
 H         1.682965         0.273942         2.778581
 H         2.508881         3.171602         1.530050
 H         3.657525         1.735263         0.910903
 H         2.212743         3.041114        -1.282085
 H        -0.091779        -1.377953        -0.238223
 H         0.609653        -0.547945        -1.404919
 H         1.631710        -1.370458        -0.269176
