19
Iteration:   132charge 0 multiplicity 1
 C        -1.060541         2.198094        -0.032917
 C         0.162418         1.871338         0.594671
 O         0.359097         1.963959         2.032183
 C         1.537553         1.077253         1.882173
 C         2.594971         1.967369         1.130587
 C         1.561919         1.932088        -0.050567
 O         1.826620         2.509331        -1.250072
 C         1.080543         0.585821         0.429622
 C         0.834013        -0.894046        -0.096901
 H        -1.829034         1.532930         0.160076
 H        -1.356500         3.174392         0.022254
 H        -0.914581         2.149618        -1.082569
 H         1.827620         0.534029         2.740564
 H         2.896761         2.958530         1.587238
 H         3.491488         1.340262         0.885376
 H         2.587951         1.995202        -1.508218
 H        -0.039873        -1.296614         0.288518
 H         0.820211        -0.800830        -1.187934
 H         1.704948        -1.633584         0.282750
