19
Iteration:  2859
 C        -0.947868         2.250111        -0.179146
 C         0.223010         1.785209         0.615174
 O         0.304264         1.824641         2.000457
 C         1.547675         0.995309         1.876113
 C         2.577741         1.913434         1.229033
 C         1.623304         2.041280         0.049511
 O         1.680076         2.528170        -1.281465
 C         1.081332         0.620963         0.482924
 C         0.891496        -0.768142        -0.060698
 H        -1.924400         1.725030        -0.046037
 H        -1.161103         3.260456         0.168952
 H        -0.491846         2.264710        -1.198534
 H         1.648271         0.358287         2.679086
 H         2.854365         2.821835         1.664246
 H         3.450549         1.464182         0.815511
 H         2.005346         1.964183        -1.978762
 H         0.290783        -1.360142         0.651540
 H         0.409717        -0.710735        -1.040362
 H         1.898053        -1.116041        -0.387487
