19
Iteration:   609charge 0 multiplicity 1
 C        -0.992578         2.187013        -0.091751
 C         0.270071         1.787283         0.580068
 O         0.267026         1.890030         2.023988
 C         1.581182         1.130498         1.940916
 C         2.591836         2.190478         1.233075
 C         1.639078         1.902443         0.051180
 O         1.754907         2.340218        -1.239256
 C         1.075025         0.521637         0.446627
 C         0.778362        -0.733288        -0.246901
 H        -1.761154         1.567448         0.271068
 H        -1.045887         3.231432         0.131991
 H        -0.821053         2.094552        -1.195768
 H         1.817107         0.498439         2.764980
 H         2.825344         3.263393         1.593913
 H         3.568499         1.611824         1.175800
 H         2.478085         1.785798        -1.659290
 H         0.265934        -1.345993         0.308173
 H         0.079242        -0.578738        -1.114115
 H         1.616976        -1.273286        -0.804119
