19
Iteration:  1209
 C        -1.053383         2.165618        -0.153982
 C         0.163848         1.753636         0.606061
 O         0.362824         2.017865         2.074020
 C         1.595775         1.064756         1.918187
 C         2.665739         2.000433         1.241220
 C         1.618772         1.893219         0.008088
 O         1.712727         2.377902        -1.300663
 C         0.980484         0.600565         0.580582
 C         0.859485        -0.686786        -0.240316
 H        -1.981097         1.464739        -0.297287
 H        -1.393735         3.217448         0.142487
 H        -0.604364         2.464119        -1.233193
 H         1.708710         0.326912         2.802688
 H         2.964897         2.947724         1.716919
 H         3.615434         1.365230         1.034626
 H         2.399349         1.846507        -1.676414
 H         0.258859        -1.476863         0.239417
 H         0.564052        -0.450429        -1.228312
 H         1.977525        -1.158730        -0.403316
