19
Iteration:  1184
 C        -1.097906         2.136173        -0.061406
 C         0.248385         1.938032         0.589148
 O         0.331091         2.010063         2.117051
 C         1.533743         1.072055         1.895927
 C         2.539190         1.944708         1.161626
 C         1.587206         1.934305         0.001146
 O         1.838849         2.345026        -1.267197
 C         0.989018         0.609991         0.500699
 C         0.932903        -0.733479        -0.262082
 H        -1.710909         1.290438        -0.011438
 H        -1.650059         3.020798         0.283703
 H        -0.865282         2.334899        -1.219145
 H         1.899146         0.514686         2.811251
 H         2.910169         2.867589         1.576359
 H         3.364923         1.261150         0.877243
 H         2.630334         1.834552        -1.511885
 H         0.362731        -1.425098         0.342177
 H         0.327232        -0.633263        -1.195806
 H         1.913009        -1.188250        -0.463048
