19
Iteration:  2990
 C        -1.063513         2.203902        -0.142782
 C         0.177402         1.793900         0.609873
 O         0.361285         1.980764         2.111741
 C         1.572934         1.073664         1.919351
 C         2.616542         1.987811         1.214565
 C         1.644366         1.897789         0.009041
 O         1.766019         2.520075        -1.252469
 C         1.035063         0.522978         0.516606
 C         0.845266        -0.804598        -0.261014
 H        -2.008380         1.610086         0.093828
 H        -1.184101         3.341746        -0.202664
 H        -0.840183         1.873434        -1.153621
 H         1.763625         0.591643         2.836964
 H         2.840630         2.947707         1.733031
 H         3.542554         1.357283         1.123311
 H         2.153636         1.879118        -1.865087
 H         0.051301        -1.546170        -0.031256
 H         0.584863        -0.438410        -1.378028
 H         1.815913        -1.355405        -0.300148
