19
Iteration:  1659
 C        -0.870534         2.366914        -0.071189
 C         0.225736         1.734728         0.590635
 O         0.290041         1.826210         2.035465
 C         1.552358         1.018107         1.847998
 C         2.504446         2.042294         1.229683
 C         1.621308         1.941830        -0.039238
 O         1.707623         2.417358        -1.381370
 C         1.099068         0.575281         0.477502
 C         0.849691        -0.781713        -0.032793
 H        -1.969497         1.928973         0.093348
 H        -0.868896         3.447448         0.318310
 H        -0.717825         2.452569        -1.039503
 H         1.869167         0.494925         2.748840
 H         2.438394         3.050995         1.730943
 H         3.521184         1.782202         0.996633
 H         2.253731         1.778934        -1.927738
 H         0.061174        -1.162759         0.594973
 H         0.602086        -0.633248        -1.076377
 H         1.752922        -1.440585         0.041735
