19
Iteration:  4582charge 0 multiplicity 1
 C        -1.060848         2.427701         0.073787
 C         0.191458         1.813233         0.659737
 O         0.343178         1.926556         2.059726
 C         1.512272         0.949382         1.857303
 C         2.728377         1.969748         1.114716
 C         1.642772         1.959844         0.065052
 O         1.825295         2.319754        -1.288971
 C         0.939233         0.555144         0.442210
 C         0.851369        -0.797236        -0.262743
 H        -2.029743         1.960245         0.208440
 H        -1.105763         3.512743         0.063224
 H        -1.004705         2.224360        -1.069196
 H         1.755586         0.347912         2.784191
 H         3.142810         2.802881         1.681382
 H         3.580153         1.342108         0.674624
 H         1.296730         3.029987        -1.744966
 H         0.062586        -1.280979         0.298063
 H         0.767062        -0.594246        -1.390072
 H         1.880791        -1.455189        -0.250283
