19
Iteration:  2704charge 0 multiplicity 1
 C        -0.977989         2.253637        -0.099415
 C         0.210959         1.800819         0.587695
 O         0.321051         1.957878         1.984141
 C         1.490072         1.067767         2.000664
 C         2.562265         1.939251         1.162486
 C         1.630223         1.853018         0.020306
 O         1.640461         2.457375        -1.262272
 C         1.031613         0.549180         0.599661
 C         1.051680        -0.698552        -0.263569
 H        -1.891583         1.539214         0.081008
 H        -1.333664         3.165390         0.425356
 H        -0.771214         2.351223        -1.234758
 H         1.562023         0.273656         2.937285
 H         2.808039         2.900338         1.610978
 H         3.441035         1.287249         0.971723
 H         2.277668         2.002838        -1.885967
 H         0.461592        -1.643111        -0.058471
 H         0.685815        -0.174874        -1.221181
 H         2.076988        -1.150922        -0.282901
