19
Iteration:   347charge 0 multiplicity 1
 C        -0.913874         2.270927        -0.100893
 C         0.271691         1.814608         0.573296
 O         0.318571         1.856866         2.068808
 C         1.532213         1.083458         1.963876
 C         2.485590         2.107236         1.185622
 C         1.613189         1.914858        -0.028944
 O         1.723298         2.405467        -1.321583
 C         1.106093         0.524066         0.522673
 C         0.838931        -0.786779        -0.177973
 H        -1.767853         1.705910         0.178660
 H        -1.293969         3.261507         0.166937
 H        -0.787405         2.311865        -1.169364
 H         2.025007         0.603146         2.769673
 H         2.711742         3.015491         1.567556
 H         3.380877         1.606319         1.066365
 H         2.357691         1.910245        -1.829409
 H        -0.097549        -1.389024         0.322543
 H         0.665252        -0.509467        -1.270000
 H         1.621786        -1.482995        -0.026214
