19
Iteration:  4685charge 0 multiplicity 1
 C        -1.020956         2.252866         0.049362
 C         0.231454         1.795989         0.683894
 O         0.361354         1.783228         2.140600
 C         1.641949         1.079294         1.828110
 C         2.576643         2.071694         1.223020
 C         1.611698         2.020818         0.046196
 O         1.958769         2.290413        -1.384573
 C         1.046916         0.592966         0.369471
 C         0.609470        -0.739193        -0.333359
 H        -1.914926         1.753943         0.516934
 H        -1.321855         3.366333         0.197541
 H        -1.093476         2.222495        -1.067883
 H         1.852751         0.421044         2.647576
 H         2.568429         3.118803         1.671879
 H         3.510927         1.594457         0.940519
 H         2.235995         3.201248        -1.486358
 H        -0.053810        -1.216687         0.517381
 H         0.009455        -0.829929        -1.244473
 H         1.425295        -1.343991        -0.210504
