19
Iteration:  2596charge 0 multiplicity 1
 C        -1.076168         2.147829        -0.104859
 C         0.187013         1.777164         0.583247
 O         0.374385         1.866634         2.044835
 C         1.563944         1.049463         1.857814
 C         2.570670         2.032633         1.171884
 C         1.632068         1.970073         0.014559
 O         1.802265         2.507783        -1.206590
 C         1.042503         0.589343         0.481983
 C         0.834342        -0.718869        -0.163878
 H        -1.933759         1.542935         0.279531
 H        -1.193802         3.185045        -0.217114
 H        -1.058955         1.806826        -1.163416
 H         1.895378         0.334827         2.750303
 H         2.720410         3.080168         1.669940
 H         3.625162         1.623293         0.981225
 H         2.323094         2.053324        -1.897961
 H         0.022766        -1.230445         0.369483
 H         0.579741        -0.808724        -1.159744
 H         1.834590        -1.371300        -0.125557
