19
Iteration:  1529
 C        -0.954450         2.264777        -0.125995
 C         0.207240         1.778589         0.632382
 O         0.327711         1.792966         2.147578
 C         1.535919         1.126524         1.897644
 C         2.578701         2.179228         1.188567
 C         1.641348         1.890564        -0.026165
 O         1.856669         2.357306        -1.340503
 C         1.024572         0.560097         0.487347
 C         0.734423        -0.769156        -0.225262
 H        -1.992178         2.235748         0.429688
 H        -0.792101         3.372275        -0.119916
 H        -1.052860         1.940068        -1.147471
 H         1.903871         0.612989         2.744204
 H         2.480289         3.171585         1.771272
 H         3.605183         1.838373         1.365417
 H         2.385990         1.705188        -1.776303
 H         0.081998        -1.423787         0.368599
 H         0.153496        -0.516493        -1.026589
 H         1.758780        -1.342567        -0.481678
