19
Iteration:  1914charge 0 multiplicity 1
 C        -1.126962         2.252040        -0.063036
 C         0.166217         1.857348         0.615389
 O         0.278416         1.872383         2.055831
 C         1.550032         1.010142         1.833765
 C         2.641306         2.008059         1.173352
 C         1.644686         1.933477        -0.041943
 O         1.887061         2.395536        -1.319222
 C         1.036344         0.639307         0.506100
 C         0.829889        -0.705617        -0.100839
 H        -1.973823         1.719377         0.384348
 H        -1.321099         3.253964        -0.251768
 H        -1.013260         1.641195        -1.056630
 H         1.758949         0.344796         2.784419
 H         2.929430         2.905200         1.736274
 H         3.543401         1.438090         0.894190
 H         2.714686         2.065192        -1.746127
 H         0.399931        -1.325995         0.702906
 H         0.220942        -0.693494        -0.946227
 H         1.886032        -1.194991        -0.378970
