19
Iteration:   642charge 0 multiplicity 1
 C        -1.005449         2.131846        -0.202770
 C         0.222936         1.889121         0.618310
 O         0.368966         1.937174         2.093537
 C         1.577232         1.061933         1.961064
 C         2.584014         1.969505         1.283559
 C         1.609816         1.933912         0.020124
 O         1.692193         2.435536        -1.371774
 C         1.020594         0.626466         0.553629
 C         0.864726        -0.759321        -0.204351
 H        -1.901174         1.657220         0.077955
 H        -1.332473         3.148250        -0.247985
 H        -0.739296         1.779004        -1.232817
 H         1.723978         0.354795         2.674914
 H         2.943026         2.918351         1.820123
 H         3.393200         1.266562         0.936053
 H         2.597397         2.259289        -1.732625
 H         0.301598        -1.426118         0.362203
 H         0.256983        -0.658454        -1.163134
 H         1.980709        -1.125284        -0.408965
