19
Iteration:  1724charge 0 multiplicity 1
 C        -1.048234         2.191744        -0.021648
 C         0.225685         1.876587         0.566528
 O         0.357128         1.980577         2.037242
 C         1.480509         1.049386         1.872658
 C         2.546057         1.857700         1.126518
 C         1.611370         1.994450        -0.009022
 O         1.842511         2.348108        -1.310471
 C         0.910172         0.603107         0.534680
 C         0.956021        -0.688386        -0.125972
 H        -1.884249         1.717872         0.565867
 H        -1.078613         3.279431        -0.227388
 H        -1.074998         1.698158        -0.871459
 H         1.738109         0.471843         2.748480
 H         2.856342         2.798688         1.648196
 H         3.339258         1.313904         0.760465
 H         2.762561         2.374740        -1.541237
 H         0.468489        -1.443803         0.481550
 H         0.303006        -0.673919        -1.043935
 H         1.887174        -1.035352        -0.491642
