19
Iteration:  2850charge 0 multiplicity 1
 C        -0.918304         2.207059        -0.222755
 C         0.234119         1.841509         0.619935
 O         0.326377         1.824133         2.033179
 C         1.532572         1.022711         1.875166
 C         2.644885         1.947473         1.175900
 C         1.586801         2.056508         0.027238
 O         1.685175         2.559758        -1.200197
 C         0.987292         0.565746         0.429253
 C         0.878322        -0.771413        -0.100059
 H        -1.754241         1.541043        -0.040171
 H        -1.214486         3.258329         0.008659
 H        -0.794424         2.227504        -1.279544
 H         1.677355         0.438529         2.692988
 H         3.052257         2.731758         1.806473
 H         3.489816         1.318381         0.933463
 H         2.004461         1.853010        -1.762763
 H         0.415106        -1.339025         0.689714
 H         0.327631        -0.926755        -0.910884
 H         1.952053        -1.298864        -0.137861
