19
Iteration:   616
 C        -0.979959         2.166021        -0.140058
 C         0.240546         1.738973         0.590726
 O         0.288234         1.904172         2.024577
 C         1.548427         1.131121         1.913978
 C         2.593811         2.116656         1.221639
 C         1.689418         1.938401         0.072630
 O         1.709260         2.317888        -1.228718
 C         1.161334         0.596025         0.509173
 C         0.766163        -0.688658        -0.264176
 H        -1.926550         1.673728         0.184824
 H        -1.148449         3.253394         0.094308
 H        -0.877931         2.022486        -1.202024
 H         1.717858         0.401645         2.711547
 H         2.772607         3.028153         1.701204
 H         3.488459         1.588908         0.915935
 H         2.474411         1.976675        -1.767384
 H         0.205325        -1.453518         0.497739
 H         0.048793        -0.547704        -1.092357
 H         1.741767        -1.107578        -0.636926
