19
Iteration:   162
 C        -1.022510         2.239447        -0.073298
 C         0.167986         1.737661         0.598210
 O         0.330870         1.817570         2.042181
 C         1.582229         1.070202         1.840183
 C         2.548551         2.194228         1.210530
 C         1.683917         1.879288        -0.065068
 O         1.833840         2.458939        -1.309873
 C         1.131668         0.531377         0.485239
 C         0.706311        -0.789310        -0.059434
 H        -2.013603         1.852052         0.323127
 H        -1.114132         3.373301         0.034135
 H        -0.882730         2.120338        -1.132962
 H         2.135600         0.438614         2.673980
 H         2.406213         3.253870         1.626592
 H         3.677476         2.037758         1.240684
 H         2.432061         1.912785        -1.862819
 H        -0.215104        -1.181783         0.314931
 H         0.627394        -0.526704        -1.157120
 H         1.429278        -1.691995        -0.031588
