19
Iteration:  1395
 C        -1.036605         2.288665        -0.029724
 C         0.241757         1.764789         0.584176
 O         0.251969         1.905241         1.974817
 C         1.588770         1.047501         1.906469
 C         2.584333         2.143394         1.239665
 C         1.672910         1.920019         0.022182
 O         1.778477         2.232054        -1.303755
 C         1.136090         0.584781         0.526165
 C         0.747137        -0.691945        -0.213920
 H        -1.790028         1.517375         0.175407
 H        -1.146972         3.329310         0.452506
 H        -0.812965         2.452269        -1.077914
 H         1.933722         0.373360         2.769529
 H         2.453024         3.221443         1.524202
 H         3.665600         1.960076         1.071689
 H         2.548363         1.789748        -1.652931
 H        -0.022830        -1.309029         0.235213
 H         0.483272        -0.460924        -1.278278
 H         1.679052        -1.390998        -0.393838
