19
Iteration:  3346
 C        -1.201250         2.138411        -0.036358
 C         0.197105         1.810284         0.581065
 O         0.460705         1.922435         2.090752
 C         1.586746         1.075361         1.932738
 C         2.501911         1.984958         1.236236
 C         1.589089         1.991302         0.033389
 O         1.981006         2.348894        -1.335653
 C         1.021804         0.596906         0.451596
 C         0.810507        -0.640826        -0.256808
 H        -2.097228         1.586705         0.474063
 H        -1.510014         3.205150         0.075772
 H        -1.133634         1.993505        -1.131145
 H         1.811935         0.485013         2.757404
 H         2.657061         2.981182         1.742356
 H         3.542303         1.767437         0.967137
 H         2.172170         1.482059        -1.673401
 H        -0.205100        -1.204592        -0.115504
 H         0.706930        -0.425665        -1.314430
 H         1.623456        -1.314490        -0.180580
