19
Iteration:   980
 C        -1.157682         2.251493         0.057570
 C         0.182744         1.777467         0.556590
 O         0.283228         1.856309         1.959374
 C         1.554259         1.075878         1.907860
 C         2.567704         2.160726         1.231354
 C         1.651814         1.928700         0.003215
 O         1.916649         2.283602        -1.295198
 C         1.010765         0.575951         0.411193
 C         0.864097        -0.712684        -0.197789
 H        -1.970446         1.628466         0.600500
 H        -1.241848         3.267266         0.532543
 H        -1.213444         2.406657        -1.031477
 H         1.936450         0.510847         2.778216
 H         2.727205         3.127669         1.705876
 H         3.630256         1.735208         1.109699
 H         2.757258         1.846583        -1.535078
 H         0.501363        -1.551687         0.403931
 H         0.463401        -0.581127        -1.296680
 H         1.817008        -0.952679        -0.557844
