19
Iteration:   699
 C        -1.123663         2.292164         0.039127
 C         0.169942         1.803813         0.524223
 O         0.285226         1.841154         1.972487
 C         1.518754         1.132387         1.868280
 C         2.554382         2.034376         1.220846
 C         1.690388         1.993484        -0.012725
 O         1.864203         2.534219        -1.386059
 C         1.050596         0.520828         0.459843
 C         0.930973        -0.944791        -0.072361
 H        -1.954346         1.718687         0.581806
 H        -1.087813         3.362617         0.235258
 H        -1.345196         2.303310        -1.011960
 H         1.781972         0.325758         2.670118
 H         2.641530         3.111987         1.724249
 H         3.606587         1.608811         1.175359
 H         2.624528         1.945052        -1.580078
 H         0.071795        -1.303216         0.390645
 H         0.782179        -0.913074        -1.179666
 H         1.684575        -1.775940         0.255996
