19
Iteration:  3665
 C        -1.117960         2.361704        -0.060318
 C         0.125362         1.776689         0.546656
 O         0.366290         1.944237         1.995389
 C         1.496427         1.035015         1.814071
 C         2.660153         1.886414         1.217379
 C         1.588925         1.953156        -0.027450
 O         1.766635         2.541990        -1.276212
 C         1.011145         0.531332         0.465520
 C         0.996419        -0.918855        -0.076240
 H        -1.996587         1.753105         0.145448
 H        -1.165310         3.473003         0.547775
 H        -1.186529         2.806298        -1.006338
 H         1.727199         0.462444         2.776908
 H         3.025346         2.819607         1.747773
 H         3.412709         1.139854         1.022002
 H         2.638697         2.489322        -1.670680
 H         0.470540        -1.707087         0.605333
 H         0.490910        -0.964271        -1.058632
 H         2.019029        -1.183619        -0.196024
