19
Iteration:  3663charge 0 multiplicity 1
 C        -1.137035         2.376321        -0.062856
 C         0.120638         1.770943         0.531648
 O         0.385847         1.948729         1.977929
 C         1.505632         1.045047         1.846851
 C         2.662063         1.879926         1.240622
 C         1.594208         1.947437        -0.032226
 O         1.751201         2.536321        -1.262275
 C         1.003035         0.515973         0.446254
 C         0.989159        -0.913428        -0.068664
 H        -1.993299         1.704381         0.158924
 H        -1.127650         3.460765         0.493876
 H        -1.202844         2.858829        -1.054607
 H         1.756910         0.424584         2.742923
 H         3.021256         2.815106         1.783971
 H         3.437419         1.131179         1.014187
 H         2.617697         2.549038        -1.721112
 H         0.547847        -1.645566         0.581975
 H         0.552389        -0.956649        -1.038093
 H         2.032181        -1.195765        -0.254850
