19
Iteration:  4314charge 0 multiplicity 1
 C        -1.042370         2.338450         0.078148
 C         0.246004         1.868036         0.638821
 O         0.344596         1.994357         2.090604
 C         1.481713         1.020474         1.842789
 C         2.621512         1.841666         1.147442
 C         1.632421         1.919763         0.026750
 O         1.855300         2.215533        -1.369409
 C         1.001261         0.603513         0.468706
 C         0.877565        -0.629617        -0.267735
 H        -1.960689         1.835290         0.418800
 H        -1.230466         3.254030         0.722580
 H        -1.064758         2.409682        -0.986744
 H         1.611384         0.232822         2.671103
 H         2.906434         2.798034         1.613374
 H         3.430161         1.147985         1.048202
 H         1.237340         2.884505        -1.702179
 H         0.236846        -1.425466         0.079400
 H         0.653232        -0.487504        -1.296354
 H         1.866705        -1.188004        -0.345658
