19
Iteration:  2625
 C        -1.068651         2.281071         0.098144
 C         0.209886         1.705940         0.519441
 O         0.265519         1.853783         1.975450
 C         1.521740         1.083845         1.839835
 C         2.501336         2.153997         1.231913
 C         1.658294         1.971033        -0.022271
 O         1.880529         2.517970        -1.303516
 C         1.166855         0.507283         0.415264
 C         0.874815        -0.923208        -0.141444
 H        -1.974187         1.797619         0.573260
 H        -1.133818         3.435860         0.400967
 H        -1.138128         2.155487        -0.955039
 H         1.734493         0.550189         2.718704
 H         2.392476         3.079549         1.646712
 H         3.496787         1.746435         1.201018
 H         2.674886         2.169329        -1.794776
 H         0.104974        -1.356397         0.571964
 H         0.137012        -0.993101        -1.110515
 H         1.696270        -1.520328        -0.318862
