19
Iteration:   374
 C        -1.089191         2.154438        -0.120427
 C         0.143593         1.797453         0.556663
 O         0.382206         2.013780         2.051742
 C         1.496564         1.071199         1.834453
 C         2.696788         1.961426         1.277491
 C         1.659509         1.948043         0.018138
 O         1.747463         2.387309        -1.263079
 C         1.009819         0.647459         0.450059
 C         0.860558        -0.756441        -0.143183
 H        -1.907565         1.382838         0.113330
 H        -1.528891         3.151099         0.054000
 H        -1.100900         2.126190        -1.246405
 H         1.850180         0.243963         2.560431
 H         3.157232         2.886972         1.917368
 H         3.634007         1.254159         1.026939
 H         2.586292         2.259236        -1.693102
 H         0.143560        -1.227299         0.511704
 H         0.450827        -0.800985        -1.135593
 H         1.998358        -1.196922        -0.221541
