19
Iteration:   772charge 0 multiplicity 1
 C        -0.949284         2.158373        -0.148346
 C         0.251135         1.798138         0.570875
 O         0.337295         1.960962         2.037997
 C         1.513709         1.112592         1.964748
 C         2.556078         2.035356         1.185721
 C         1.617239         1.817520        -0.015427
 O         1.677488         2.407642        -1.199441
 C         1.032885         0.541818         0.529843
 C         0.925475        -0.665432        -0.212705
 H        -1.741515         1.449186         0.076915
 H        -1.249706         3.153747         0.219135
 H        -0.866451         2.393751        -1.247498
 H         1.614309         0.558286         2.799010
 H         2.975032         2.932169         1.502187
 H         3.392399         1.389076         1.049960
 H         2.189254         1.982157        -1.860215
 H         0.366504        -1.391223         0.419263
 H         0.529275        -0.489224        -1.273204
 H         1.876710        -1.082601        -0.608445
