19
Iteration:  3526charge 0 multiplicity 1
 C        -1.164964         2.067855         0.020044
 C         0.133218         1.838856         0.591556
 O         0.385828         1.989429         1.974039
 C         1.575890         1.092896         1.864402
 C         2.647682         1.896430         1.139699
 C         1.577558         2.025976         0.013229
 O         1.933392         2.440521        -1.215501
 C         0.988402         0.565348         0.523462
 C         0.791164        -0.700136        -0.221510
 H        -1.880305         1.146546         0.281266
 H        -1.605579         3.102735         0.257040
 H        -0.868253         1.943971        -1.099491
 H         1.869757         0.562151         2.852605
 H         3.022545         2.865093         1.462018
 H         3.322780         1.192397         0.632445
 H         2.886432         2.334516        -1.460024
 H        -0.100485        -1.241637         0.104367
 H         0.713026        -0.555405        -1.324769
 H         1.639467        -1.296083        -0.027539
