19
Iteration:  2420charge 0 multiplicity 1
 C        -0.980112         2.226359        -0.172977
 C         0.174919         1.749520         0.605381
 O         0.351010         2.008045         1.990554
 C         1.595368         1.131630         1.948919
 C         2.643051         1.911101         1.193944
 C         1.584126         1.949985         0.043906
 O         1.597531         2.488429        -1.200198
 C         1.057715         0.479624         0.562539
 C         0.941862        -0.827104        -0.289043
 H        -1.899772         1.681328         0.099275
 H        -1.287787         3.251891         0.056814
 H        -0.850538         2.139625        -1.175057
 H         1.692610         0.588758         2.907372
 H         2.777850         2.846016         1.767422
 H         3.588156         1.309522         1.010636
 H         2.486774         2.820308        -1.506788
 H         0.269334        -1.563451         0.171715
 H         0.588373        -0.658201        -1.249124
 H         1.941824        -1.438057        -0.454073
