19
Iteration:   382charge 0 multiplicity 1
 C        -1.181313         2.109463        -0.137491
 C         0.147969         1.868633         0.596412
 O         0.400501         2.013309         2.038461
 C         1.517434         1.070654         1.869799
 C         2.665997         1.945892         1.222534
 C         1.693749         1.986170         0.019666
 O         1.820266         2.425479        -1.263298
 C         0.979170         0.635166         0.452868
 C         0.865823        -0.782256        -0.159932
 H        -1.878301         1.396153         0.223371
 H        -1.406129         3.088194         0.208377
 H        -1.123447         2.027319        -1.258415
 H         1.761477         0.404338         2.716468
 H         3.083679         2.729072         1.735313
 H         3.270866         1.101109         1.135790
 H         2.636373         2.227582        -1.692640
 H         0.236970        -1.522116         0.578724
 H         0.392614        -0.976595        -1.140482
 H         1.921246        -1.115109        -0.293828
