19
Iteration:  1055charge 0 multiplicity 1
 C        -1.119251         2.180284        -0.217241
 C         0.186927         1.778191         0.655288
 O         0.420394         2.035129         2.074084
 C         1.524257         1.144453         1.995714
 C         2.575519         1.887591         1.207674
 C         1.685070         1.869448        -0.012031
 O         1.667869         2.535044        -1.247118
 C         1.093018         0.530069         0.464498
 C         0.906851        -0.788302        -0.239666
 H        -2.057278         1.830161         0.124525
 H        -1.157935         3.263220        -0.104779
 H        -0.837560         1.975841        -1.235159
 H         1.598191         0.434273         2.841501
 H         2.934138         2.802915         1.669865
 H         3.531848         1.272429         1.139787
 H         2.418511         2.146594        -1.779570
 H         0.117200        -1.278960         0.346895
 H         0.674060        -0.797088        -1.322394
 H         1.828438        -1.610575        -0.175629
