19
Iteration:  1526charge 0 multiplicity 1
 C        -0.959831         2.279060        -0.127613
 C         0.205239         1.776534         0.625630
 O         0.324682         1.805690         2.131447
 C         1.537708         1.121332         1.891051
 C         2.560629         2.188173         1.159941
 C         1.672389         1.889002        -0.031610
 O         1.832455         2.361561        -1.296874
 C         1.053292         0.559296         0.506546
 C         0.741836        -0.782847        -0.222058
 H        -1.931902         2.245374         0.413722
 H        -0.788639         3.412365        -0.135335
 H        -0.991542         1.909481        -1.082810
 H         1.824882         0.456769         2.819016
 H         2.522711         3.163853         1.679885
 H         3.551366         1.806314         1.334568
 H         2.394758         1.699415        -1.771980
 H         0.124686        -1.476950         0.349336
 H         0.114313        -0.571654        -1.140540
 H         1.625805        -1.320227        -0.457768
