19
Iteration:  2861charge 0 multiplicity 1
 C        -0.956413         2.264011        -0.165688
 C         0.207682         1.770237         0.598795
 O         0.298972         1.832465         2.011146
 C         1.546694         0.987382         1.875258
 C         2.573459         1.917931         1.240559
 C         1.629837         2.015478         0.050352
 O         1.680433         2.529525        -1.299890
 C         1.106501         0.630906         0.486493
 C         0.886191        -0.761053        -0.064479
 H        -1.891135         1.729367        -0.077219
 H        -1.145240         3.310157         0.170929
 H        -0.515467         2.277834        -1.123722
 H         1.699913         0.360291         2.657795
 H         2.774873         2.878630         1.665433
 H         3.424053         1.435303         0.818783
 H         2.048788         1.930760        -1.983559
 H         0.318171        -1.400189         0.577924
 H         0.443381        -0.657783        -0.947814
 H         1.933385        -1.180169        -0.407420
