19
Iteration:  4806
 C        -1.067305         2.558863         0.117381
 C         0.152430         1.846332         0.599318
 O         0.330509         1.772042         2.074226
 C         1.554620         1.009799         1.846721
 C         2.595489         2.031708         1.081950
 C         1.688236         1.818704        -0.020809
 O         1.762591         2.274357        -1.249610
 C         1.047174         0.570421         0.424751
 C         0.934941        -0.785109        -0.297064
 H        -2.006161         2.387852         0.636040
 H        -1.126637         3.592012         0.301097
 H        -1.159572         2.358185        -0.913552
 H         1.779762         0.362550         2.663897
 H         2.675283         3.039884         1.538044
 H         3.584215         1.593419         0.942315
 H         1.956777         3.221420        -1.372818
 H         0.319816        -1.391635         0.523246
 H         0.409093        -0.918140        -1.275559
 H         1.906395        -1.242817        -0.285055
