19
Iteration:  1205charge 0 multiplicity 1
 C        -1.057209         2.169784        -0.169309
 C         0.115332         1.785285         0.636253
 O         0.411218         1.985829         2.046920
 C         1.551162         1.066078         1.925272
 C         2.660055         1.968686         1.197757
 C         1.595032         1.873159         0.001424
 O         1.740959         2.368043        -1.276503
 C         0.999587         0.627664         0.575833
 C         0.888290        -0.654191        -0.211427
 H        -1.783175         1.437484        -0.201845
 H        -1.482338         3.074706         0.232744
 H        -0.639265         2.346831        -1.222430
 H         1.647123         0.389197         2.809697
 H         2.834065         2.925509         1.674297
 H         3.575628         1.411012         1.071425
 H         2.487243         1.918936        -1.796852
 H         0.279888        -1.470693         0.161211
 H         0.450579        -0.392034        -1.225730
 H         1.858634        -0.965793        -0.310152
