19
Iteration:  4364charge 0 multiplicity 1
 C        -1.019140         2.345149         0.088585
 C         0.174600         1.787130         0.605495
 O         0.390346         1.955110         2.095134
 C         1.571000         1.054296         1.862136
 C         2.561160         1.901665         1.150249
 C         1.591683         1.879093         0.015647
 O         1.870216         2.251054        -1.358667
 C         0.993817         0.592849         0.470903
 C         0.817038        -0.636486        -0.262222
 H        -1.970768         1.856233         0.440308
 H        -1.098120         3.436403         0.297798
 H        -0.960117         2.117080        -1.042457
 H         1.820114         0.471573         2.734955
 H         2.861381         2.824415         1.673741
 H         3.443956         1.242324         0.873940
 H         1.827117         3.214107        -1.319606
 H        -0.001685        -1.345289         0.075097
 H         0.681439        -0.512003        -1.397175
 H         1.644509        -1.324540        -0.307292
