19
Iteration:   448
 C        -1.061664         2.287011        -0.058618
 C         0.253608         1.886295         0.603181
 O         0.291380         1.827532         2.005086
 C         1.575806         1.034941         1.851904
 C         2.514262         2.171435         1.303885
 C         1.667325         1.956993         0.009071
 O         1.779998         2.318822        -1.316405
 C         1.183474         0.558693         0.445708
 C         0.838228        -0.807424        -0.174718
 H        -1.929980         1.896607         0.430399
 H        -1.203388         3.331196        -0.149434
 H        -1.252591         2.021691        -1.110644
 H         1.751760         0.351721         2.746940
 H         2.603175         3.116781         1.722026
 H         3.434922         1.715724         1.112368
 H         2.574422         1.812188        -1.654257
 H         0.109234        -1.242095         0.593515
 H         0.191919        -0.675966        -1.026864
 H         1.624327        -1.355302        -0.467501
