19
Iteration:  3297
 C        -0.976754         2.244305        -0.125697
 C         0.271617         1.774567         0.583176
 O         0.362165         1.847054         2.041724
 C         1.558530         1.055402         1.933654
 C         2.519237         2.124385         1.274077
 C         1.711956         1.912697        -0.004607
 O         1.741586         2.439647        -1.369065
 C         1.114352         0.472918         0.491405
 C         0.705338        -0.740084        -0.160392
 H        -1.824853         1.685545         0.120364
 H        -1.237987         3.145351         0.418024
 H        -0.965344         2.437396        -1.184493
 H         1.760273         0.573892         2.949709
 H         2.746575         3.079252         1.755592
 H         3.501488         1.596374         1.189142
 H         2.637895         2.436449        -1.812888
 H        -0.189203        -1.177572         0.337254
 H         0.176858        -0.565213        -1.191568
 H         1.579808        -1.562112        -0.263760
