19
Iteration:  1236charge 0 multiplicity 1
 C        -0.932958         2.308246        -0.063380
 C         0.271259         1.840731         0.584422
 O         0.342749         1.865415         2.001678
 C         1.500592         1.120170         1.959574
 C         2.530574         2.057887         1.186575
 C         1.615652         1.883678        -0.008134
 O         1.667769         2.376865        -1.261064
 C         1.149944         0.573948         0.477604
 C         0.847833        -0.815580        -0.200307
 H        -1.751850         1.619228         0.165738
 H        -1.221313         3.335486         0.079803
 H        -0.789822         2.331345        -1.070142
 H         1.644503         0.597593         2.861344
 H         2.672853         3.086430         1.613531
 H         3.453250         1.554395         1.104905
 H         2.305071         1.780339        -1.625682
 H         0.075497        -1.355496         0.385263
 H         0.666931        -0.611375        -1.324902
 H         1.673433        -1.471689        -0.292653
