19
Iteration:  1137
 C        -1.083807         2.281995         0.033254
 C         0.265504         1.830336         0.562011
 O         0.282314         1.836197         1.982359
 C         1.511188         1.072469         1.835924
 C         2.487546         2.119128         1.184049
 C         1.623643         1.909086        -0.029118
 O         1.950320         2.411229        -1.276233
 C         1.128091         0.517354         0.430540
 C         0.855057        -0.782084        -0.104101
 H        -1.821041         1.692028         0.646216
 H        -1.240960         3.290169         0.437512
 H        -1.502751         2.247973        -0.965305
 H         1.625541         0.454343         2.680034
 H         2.419900         3.149699         1.610631
 H         3.453960         1.815213         0.884852
 H         2.478387         1.722900        -1.666876
 H         0.153413        -1.482391         0.453141
 H         0.189726        -0.618289        -1.112493
 H         1.778361        -1.239273        -0.239511
