19
Iteration:  4191charge 0 multiplicity 1
 C        -1.082903         2.242244        -0.065414
 C         0.186350         1.891123         0.706099
 O         0.462432         1.944047         2.164673
 C         1.515224         1.037591         1.901528
 C         2.648985         1.880639         1.186090
 C         1.635721         1.923016        -0.049052
 O         1.916622         2.415619        -1.335165
 C         1.004710         0.563659         0.379343
 C         0.729598        -0.773549        -0.257010
 H        -1.994030         1.903426         0.356505
 H        -1.315742         3.411742         0.127883
 H        -1.071860         2.010797        -1.192250
 H         1.795722         0.364266         2.696069
 H         2.950235         2.841577         1.583219
 H         3.486793         1.160313         1.081783
 H         1.452484         3.297606        -1.351076
 H        -0.106441        -1.295869         0.316102
 H         0.215570        -0.791170        -1.281421
 H         1.579513        -1.464607        -0.244725
