19
Iteration:  3071charge 0 multiplicity 1
 C        -1.048577         2.259025         0.010221
 C         0.148514         1.748118         0.571691
 O         0.271206         1.858144         1.983996
 C         1.589253         1.052203         1.787392
 C         2.543425         2.033290         1.141179
 C         1.607458         1.895951        -0.012278
 O         1.924592         2.538502        -1.278132
 C         1.028855         0.606032         0.396771
 C         0.852276        -0.845683         0.002389
 H        -1.964235         1.679775         0.212746
 H        -1.211815         3.316755         0.475828
 H        -0.814934         2.439969        -1.115531
 H         1.718441         0.194214         2.592817
 H         2.580555         3.073160         1.489201
 H         3.494957         1.497426         0.940456
 H         2.869500         2.504118        -1.182130
 H         0.286850        -1.329723         0.864169
 H         0.209390        -0.731937        -0.889489
 H         1.737181        -1.604554        -0.474671
