19
Iteration:  4765
 C        -1.126571         2.405679         0.041038
 C         0.220794         1.824743         0.618541
 O         0.437313         1.930466         2.077449
 C         1.537440         0.945907         1.862739
 C         2.632356         1.830904         1.136877
 C         1.604076         1.926118         0.050334
 O         1.805515         2.292776        -1.341551
 C         0.893266         0.555738         0.490257
 C         0.946169        -0.632986        -0.254771
 H        -2.123127         1.898431         0.349541
 H        -1.184497         3.563140         0.363652
 H        -1.089929         2.237805        -1.042374
 H         1.800165         0.397852         2.786781
 H         2.916456         2.809954         1.625713
 H         3.617009         1.396264         0.747319
 H         1.258256         3.082971        -1.351645
 H         0.259585        -1.451830        -0.061383
 H         0.901442        -0.436835        -1.341538
 H         1.966968        -0.983060        -0.207200
