19
Iteration:  3355
 C        -1.212305         2.138892        -0.007251
 C         0.206086         1.917620         0.678660
 O         0.408903         2.007467         2.048789
 C         1.568562         1.045386         1.919446
 C         2.543073         1.973423         1.251541
 C         1.610406         1.964623         0.029214
 O         1.957893         2.356802        -1.323303
 C         0.991487         0.592626         0.437118
 C         0.855088        -0.738522        -0.342420
 H        -1.814944         1.504747         0.550501
 H        -1.518370         3.177213         0.043466
 H        -1.239284         1.879479        -1.080144
 H         1.770046         0.611848         2.897035
 H         2.722921         2.954152         1.754479
 H         3.477199         1.355137         1.074045
 H         2.086585         1.597406        -1.878832
 H        -0.035480        -1.332371         0.100643
 H         0.863932        -0.463078        -1.430731
 H         1.771353        -1.460558        -0.250075
