19
Iteration:  3716charge 0 multiplicity 1
 C        -1.094478         2.251692        -0.048930
 C         0.185353         1.730683         0.576576
 O         0.329411         1.869755         2.067841
 C         1.609987         1.014204         1.857310
 C         2.635793         2.127993         1.294455
 C         1.635538         2.021939         0.015991
 O         1.854985         2.411797        -1.333900
 C         1.137200         0.605433         0.479223
 C         0.744095        -0.812623        -0.196380
 H        -2.058645         1.699957         0.178301
 H        -1.432327         3.202969         0.182142
 H        -0.986279         2.228407        -1.186920
 H         1.891682         0.221470         2.550117
 H         2.597010         3.065913         1.889946
 H         3.685151         1.834250         1.096356
 H         2.057494         1.650760        -1.921942
 H        -0.190558        -1.206645         0.086972
 H         0.389758        -0.467928        -1.160420
 H         1.557297        -1.631655        -0.210607
