19
Iteration:   431
 C        -1.156748         2.250146        -0.023950
 C         0.149245         1.754293         0.536123
 O         0.348926         1.902558         2.008438
 C         1.549377         1.161612         1.924494
 C         2.606032         2.083087         1.272243
 C         1.656545         1.935103        -0.008407
 O         1.928051         2.429261        -1.288273
 C         1.056613         0.542315         0.405085
 C         0.795411        -0.848957        -0.187698
 H        -2.004454         1.737031         0.569663
 H        -1.273385         3.386100         0.058360
 H        -1.188516         1.866059        -1.057335
 H         1.891682         0.649393         2.838356
 H         2.467495         3.129281         1.820681
 H         3.687371         1.678100         1.068460
 H         2.555126         1.791456        -1.735714
 H         0.339931        -1.475851         0.539388
 H         0.088086        -0.818878        -1.054178
 H         1.825286        -1.407618        -0.605846
