19
Iteration:   666charge 0 multiplicity 1
 C        -1.016437         2.171781        -0.084555
 C         0.189388         1.819849         0.595520
 O         0.349591         1.985291         2.017900
 C         1.506890         1.086818         1.839755
 C         2.596835         1.961746         1.091567
 C         1.583104         1.886130         0.037107
 O         1.795039         2.503982        -1.186203
 C         0.988954         0.578505         0.449043
 C         0.941418        -0.813326        -0.130084
 H        -1.990533         1.744842         0.317132
 H        -1.320282         3.214342        -0.057101
 H        -0.957878         1.827566        -1.119291
 H         1.787077         0.434225         2.829304
 H         2.668256         3.052128         1.541009
 H         3.524695         1.315648         0.990024
 H         2.524245         2.025316        -1.549579
 H         0.174604        -1.309490         0.328989
 H         0.544843        -0.686977        -1.146863
 H         1.941499        -1.364319        -0.037754
