19
Iteration:  1301charge 0 multiplicity 1
 C        -1.129381         2.315670         0.006576
 C         0.228202         1.789195         0.522693
 O         0.279801         1.920414         1.986363
 C         1.543356         1.099414         1.801098
 C         2.611503         1.942660         1.164175
 C         1.604568         1.888237        -0.033289
 O         1.873817         2.503216        -1.259703
 C         0.996211         0.547923         0.413633
 C         0.913012        -0.842085        -0.012547
 H        -1.891904         1.925164         0.828668
 H        -1.156857         3.433716         0.011339
 H        -1.331622         1.904253        -0.923009
 H         1.687530         0.379780         2.516173
 H         2.654745         2.973654         1.630450
 H         3.576827         1.483077         1.094041
 H         2.741465         2.131825        -1.577248
 H         0.215457        -1.526366         0.577835
 H         0.577118        -0.727888        -1.138934
 H         1.951370        -1.271936        -0.018653
