19
Iteration:  4593
 C        -1.052124         2.413784        -0.017485
 C         0.193624         1.901621         0.633979
 O         0.386733         1.872254         2.046213
 C         1.547808         1.049410         1.816918
 C         2.711225         1.869919         1.079125
 C         1.589493         1.927332         0.044730
 O         1.829842         2.360620        -1.205120
 C         0.940781         0.553282         0.466295
 C         0.845797        -0.762249        -0.222698
 H        -1.871071         1.828311         0.395043
 H        -1.303402         3.467516         0.169820
 H        -0.889796         2.232901        -1.125326
 H         1.795700         0.304816         2.627677
 H         2.957335         2.830226         1.519963
 H         3.562608         1.139584         0.938774
 H         1.082751         2.973151        -1.401154
 H         0.186039        -1.554164         0.115627
 H         0.459842        -0.779398        -1.290327
 H         1.935941        -1.236962        -0.033327
