19
Iteration:  1916charge 0 multiplicity 1
 C        -1.138400         2.254052        -0.063039
 C         0.177638         1.845923         0.604232
 O         0.277815         1.866017         2.054114
 C         1.560008         1.009850         1.835061
 C         2.624667         2.006222         1.181519
 C         1.642818         1.942481        -0.038133
 O         1.884418         2.379157        -1.314264
 C         1.056410         0.634861         0.504967
 C         0.824426        -0.689177        -0.106985
 H        -1.931821         1.770095         0.397536
 H        -1.316300         3.307499        -0.242202
 H        -1.051292         1.644106        -1.047219
 H         1.783465         0.448811         2.753265
 H         2.868587         2.917246         1.742396
 H         3.587044         1.450388         0.872058
 H         2.722634         2.051194        -1.724820
 H         0.399527        -1.303875         0.694413
 H         0.210182        -0.674935        -0.942164
 H         1.852535        -1.208828        -0.370734
