19
Iteration:   583charge 0 multiplicity 1
 C        -1.147594         2.271468        -0.010121
 C         0.191296         1.737684         0.590288
 O         0.332061         1.911255         2.091696
 C         1.559061         1.081288         1.932886
 C         2.437139         2.153239         1.212627
 C         1.661778         1.875610        -0.075590
 O         1.958987         2.397713        -1.334805
 C         1.104910         0.519788         0.460869
 C         0.810305        -0.749770        -0.202185
 H        -1.996974         1.590584         0.224055
 H        -1.073983         3.326216         0.336321
 H        -0.913269         2.378449        -1.040123
 H         1.845731         0.402704         2.727795
 H         2.450604         3.092879         1.697547
 H         3.474687         1.835961         1.107632
 H         2.539845         1.784583        -1.853539
 H         0.185360        -1.596946         0.446601
 H         0.358814        -0.771094        -1.201716
 H         1.766107        -1.285055        -0.477101
