19
Iteration:   789charge 0 multiplicity 1
 C        -1.070643         2.155693        -0.139331
 C         0.178303         1.813775         0.615246
 O         0.348315         2.019005         2.003213
 C         1.533526         1.091993         1.920432
 C         2.643575         1.918804         1.237522
 C         1.695604         1.929053         0.038978
 O         1.693775         2.412291        -1.287595
 C         1.021985         0.535300         0.587690
 C         0.913061        -0.699323        -0.251558
 H        -1.840766         1.383168        -0.033230
 H        -1.510385         3.156418         0.059655
 H        -0.819820         2.151135        -1.209117
 H         1.825415         0.485573         2.912204
 H         2.575344         2.957787         1.731708
 H         3.679816         1.444440         1.132970
 H         2.355444         1.948805        -1.797807
 H         0.509755        -1.643547         0.177394
 H         0.261005        -0.348946        -0.998997
 H         1.995763        -1.002261        -0.546213
