19
Iteration:  3332charge 0 multiplicity 1
 C        -1.119421         2.157330        -0.032664
 C         0.145867         1.763698         0.631576
 O         0.341231         1.851421         2.102143
 C         1.590733         1.026783         1.821976
 C         2.583477         2.165716         1.175838
 C         1.606406         1.949252        -0.012857
 O         1.954749         2.303368        -1.279194
 C         1.086356         0.633752         0.514012
 C         0.725992        -0.603616        -0.254557
 H        -1.867520         1.553141         0.292083
 H        -1.239341         3.214738         0.157908
 H        -1.011409         2.077056        -1.133374
 H         1.875538         0.376328         2.700362
 H         2.650465         3.125285         1.743289
 H         3.553604         1.630420         0.947377
 H         2.502844         1.658393        -1.815754
 H        -0.206947        -1.002353         0.286121
 H         0.765090        -0.334121        -1.363846
 H         1.506352        -1.519480        -0.115352
