19
Iteration:  2086
 C        -0.986670         2.261778        -0.031680
 C         0.258816         1.842770         0.571037
 O         0.218041         1.699778         2.107648
 C         1.568893         1.058565         1.791918
 C         2.535325         2.138029         1.185340
 C         1.704352         1.990283        -0.060416
 O         1.803233         2.334995        -1.378167
 C         1.109513         0.617395         0.427325
 C         0.792492        -0.751359        -0.012532
 H        -1.949097         1.682087         0.121615
 H        -1.070361         3.250947         0.397534
 H        -0.763889         2.418638        -1.133916
 H         1.760065         0.299197         2.659187
 H         2.256904         3.196392         1.612883
 H         3.586665         1.950436         1.447195
 H         2.725004         2.408737        -1.681720
 H         0.323192        -1.426081         0.753817
 H         0.026810        -0.667738        -0.949429
 H         1.664636        -1.197267        -0.374367
