19
Iteration:   509charge 0 multiplicity 1
 C        -1.006289         2.291313        -0.154540
 C         0.190559         1.801835         0.603528
 O         0.399697         2.000189         1.971205
 C         1.534905         1.058007         1.902491
 C         2.528067         1.976384         1.199933
 C         1.557183         1.869565         0.061857
 O         1.714323         2.467398        -1.218487
 C         0.952482         0.506877         0.509624
 C         1.000839        -0.815589        -0.188327
 H        -1.849505         1.740396         0.283874
 H        -1.138199         3.311790         0.322216
 H        -0.890572         2.248762        -1.237595
 H         1.752927         0.562598         2.766566
 H         2.896215         3.038240         1.510464
 H         3.435409         1.386326         0.811706
 H         2.473396         2.070996        -1.715768
 H         0.264540        -1.423676         0.094814
 H         0.969753        -0.775335        -1.311179
 H         1.854606        -1.525519         0.201271
