19
Iteration:  2259
 C        -0.963990         2.441080        -0.090163
 C         0.227009         1.773494         0.628261
 O         0.295341         1.904029         2.037230
 C         1.515218         1.073130         1.944437
 C         2.578380         2.089574         1.218358
 C         1.595164         1.882658         0.063601
 O         1.579075         2.322751        -1.307116
 C         1.096649         0.458765         0.479649
 C         1.041732        -0.801104        -0.258546
 H        -1.894222         1.701605        -0.137780
 H        -1.326900         3.439830         0.314165
 H        -0.566016         2.517973        -1.104577
 H         1.789484         0.390240         2.896176
 H         2.612104         3.170965         1.543711
 H         3.566296         1.636256         1.150108
 H         2.437038         2.176055        -1.754865
 H         0.692222        -1.605358         0.433921
 H         0.312675        -0.585451        -1.112181
 H         1.988094        -1.116332        -0.751577
