19
Iteration:  2768
 C        -1.201147         2.190408         0.009388
 C         0.229238         1.768055         0.594140
 O         0.288569         1.764340         2.073739
 C         1.591422         1.101565         1.864911
 C         2.498059         2.108966         1.293821
 C         1.721207         1.936285        -0.069109
 O         1.952729         2.370591        -1.318838
 C         1.070965         0.647734         0.389707
 C         0.832488        -0.661396        -0.186759
 H        -2.064333         1.769236         0.607039
 H        -1.445888         3.272571         0.108712
 H        -1.290329         1.823300        -1.041235
 H         1.786550         0.321793         2.707466
 H         2.447249         3.128055         1.632250
 H         3.516625         1.718659         1.204792
 H         2.846904         2.229461        -1.677162
 H        -0.076377        -1.223457         0.205619
 H         0.569596        -0.616175        -1.384016
 H         1.643136        -1.313337        -0.213384
