19
Iteration:  3096
 C        -1.166805         2.246880        -0.072298
 C         0.203264         1.839372         0.547510
 O         0.384366         1.918375         1.976920
 C         1.534956         1.120148         1.927120
 C         2.563162         1.920938         1.182943
 C         1.667270         1.954425         0.053606
 O         1.845311         2.542902        -1.279048
 C         1.027597         0.557685         0.506718
 C         0.859879        -0.872532        -0.175936
 H        -1.872874         1.467199         0.246135
 H        -1.497845         3.156435         0.331423
 H        -1.124719         2.357182        -1.160336
 H         1.844503         0.535238         2.820705
 H         2.845808         2.888788         1.657336
 H         3.317588         1.167523         0.960264
 H         2.531987         1.989614        -1.680290
 H         0.243816        -1.518120         0.489584
 H         0.559391        -0.803377        -1.203935
 H         1.900375        -1.441436        -0.282119
