19
Iteration:  3177
 C        -0.966676         2.325223         0.024325
 C         0.145833         1.727696         0.614946
 O         0.353986         1.876211         2.044556
 C         1.458585         1.127158         1.885941
 C         2.456524         2.105108         1.214801
 C         1.653664         1.848733         0.006272
 O         1.810053         2.267558        -1.346845
 C         1.069789         0.530636         0.493735
 C         0.917393        -0.669376        -0.290483
 H        -1.820896         2.093009         0.612978
 H        -0.843251         3.410208         0.182148
 H        -1.148100         2.070009        -1.001007
 H         1.797039         0.630628         2.840879
 H         2.521001         3.072493         1.800458
 H         3.540505         1.719682         1.101075
 H         2.706331         2.007624        -1.560623
 H         0.041156        -1.250598        -0.024917
 H         0.655321        -0.370016        -1.361186
 H         1.795203        -1.264068        -0.168696
