19
Iteration:  4238
 C        -1.000049         2.416161        -0.053020
 C         0.197003         1.780494         0.569900
 O         0.380304         1.823855         2.145492
 C         1.575249         1.081433         1.863045
 C         2.590600         1.939766         1.176351
 C         1.710006         1.921449        -0.035680
 O         1.782206         2.443400        -1.307261
 C         1.052842         0.520789         0.353539
 C         0.695811        -0.816533        -0.130554
 H        -2.031906         1.989256         0.370031
 H        -1.258687         3.544239         0.050682
 H        -0.973112         2.148387        -1.135284
 H         2.081095         0.390753         2.639564
 H         2.815152         2.840360         1.858994
 H         3.486643         1.326618         0.971201
 H         2.337669         3.261373        -1.376433
 H         0.045197        -1.294758         0.554653
 H         0.154089        -0.770621        -1.020961
 H         1.583487        -1.470061        -0.267660
