19
Iteration:  4884charge 0 multiplicity 1
 C        -1.083430         2.168013        -0.033821
 C         0.196178         1.810289         0.664711
 O         0.441651         1.951392         2.109665
 C         1.581460         0.937415         1.879653
 C         2.674013         1.822758         1.144254
 C         1.620405         2.004207         0.006299
 O         1.866248         2.474030        -1.347075
 C         1.000410         0.574772         0.541122
 C         0.728350        -0.649936        -0.223056
 H        -1.810225         1.334755         0.062439
 H        -1.482580         3.126421         0.276523
 H        -1.014757         2.186925        -1.097475
 H         1.809877         0.456882         2.852263
 H         3.076526         2.807964         1.384792
 H         3.521508         1.235745         0.738275
 H         1.346910         3.284046        -1.588670
 H        -0.145730        -1.336330         0.252130
 H         0.317279        -0.313226        -1.251318
 H         1.553154        -1.230561        -0.590698
