19
Iteration:  2881
 C        -1.027076         2.373716        -0.106920
 C         0.215453         1.757791         0.625628
 O         0.313354         1.821672         2.081600
 C         1.534233         1.097632         1.892652
 C         2.545667         2.090239         1.255998
 C         1.639768         1.891026        -0.030627
 O         1.746391         2.419078        -1.292185
 C         1.081255         0.531684         0.448873
 C         0.917000        -0.831877        -0.238290
 H        -1.959962         1.837169         0.174637
 H        -1.235452         3.308545         0.431596
 H        -0.884451         2.524647        -1.195153
 H         1.731849         0.531804         2.712047
 H         2.615437         3.012513         1.754423
 H         3.526962         1.671985         1.263479
 H         2.500234         2.065992        -1.837771
 H         0.260129        -1.278098         0.509227
 H         0.402785        -0.775380        -1.197883
 H         1.902392        -1.307137        -0.431040
