19
Iteration:   857
 C        -1.127124         2.274840         0.085870
 C         0.194669         1.763460         0.591988
 O         0.296191         1.872575         2.008750
 C         1.517091         1.108372         1.864711
 C         2.469172         2.102782         1.220616
 C         1.664508         1.994932        -0.056693
 O         1.906054         2.431032        -1.306180
 C         1.187503         0.545711         0.361547
 C         0.860403        -0.880672        -0.160803
 H        -1.933447         1.854683         0.607686
 H        -1.111040         3.394602         0.085878
 H        -1.189953         1.918053        -1.034199
 H         1.775118         0.566401         2.779958
 H         2.472026         3.079298         1.724834
 H         3.463158         1.613871         1.176677
 H         2.664901         1.824489        -1.658834
 H         0.020543        -1.315965         0.502296
 H         0.455424        -0.766694        -1.168788
 H         1.650400        -1.565105        -0.167418
