19
Iteration:   221
 C        -1.072189         2.176759        -0.120908
 C         0.173217         1.822739         0.638160
 O         0.373657         2.025744         2.086405
 C         1.523726         1.101961         1.948551
 C         2.559570         1.960944         1.131398
 C         1.626695         1.891720         0.012912
 O         1.811763         2.414515        -1.258548
 C         0.991596         0.535572         0.460678
 C         0.887095        -0.752401        -0.191582
 H        -1.884822         1.555361         0.102657
 H        -1.222296         3.222558        -0.080119
 H        -0.912302         2.045618        -1.227177
 H         1.918833         0.642077         2.813424
 H         2.727962         3.023301         1.494412
 H         3.453585         1.319512         0.936228
 H         2.578434         2.076198        -1.711803
 H         0.536053        -1.550453         0.493038
 H         0.264139        -0.706992        -1.075954
 H         1.986339        -1.141547        -0.551404
