19
Iteration:  1722
 C        -1.039961         2.197306        -0.003308
 C         0.223521         1.872967         0.575084
 O         0.361477         1.965659         2.019876
 C         1.472227         1.040327         1.865944
 C         2.528106         1.875670         1.149057
 C         1.604923         1.987032        -0.014943
 O         1.844443         2.350194        -1.312616
 C         0.917631         0.596478         0.541997
 C         0.953615        -0.682263        -0.119006
 H        -1.859237         1.791545         0.532334
 H        -1.020485         3.305083        -0.219723
 H        -1.035872         1.671786        -0.987233
 H         1.796002         0.479767         2.776253
 H         2.886632         2.842232         1.538172
 H         3.358664         1.338858         0.729841
 H         2.771131         2.403082        -1.602037
 H         0.455975        -1.453643         0.498845
 H         0.248386        -0.691259        -1.077377
 H         1.872613        -1.017148        -0.459161
