19
Iteration:  2467charge 0 multiplicity 1
 C        -1.097962         2.360834         0.053814
 C         0.151400         1.838840         0.607762
 O         0.263350         1.784838         2.048314
 C         1.562941         0.999716         1.769747
 C         2.487156         2.055998         1.253034
 C         1.594364         2.029305        -0.017028
 O         1.922237         2.476625        -1.375820
 C         1.013344         0.563738         0.335931
 C         1.031546        -0.844132        -0.053429
 H        -2.108271         1.852976         0.220257
 H        -1.404726         3.321567         0.399680
 H        -0.974022         2.478365        -1.111075
 H         1.969218         0.291975         2.749093
 H         2.703651         2.938234         1.905656
 H         3.325593         1.481370         0.907184
 H         2.006989         1.553022        -1.656533
 H         0.681816        -1.521646         0.739918
 H         0.500483        -1.057689        -1.012690
 H         2.110040        -1.196091        -0.323598
