19
Iteration:  4477charge 0 multiplicity 1
 C        -1.083095         2.254415        -0.022479
 C         0.235642         1.954959         0.708100
 O         0.448137         1.995434         2.072364
 C         1.527488         1.079434         1.890809
 C         2.629983         1.815982         1.204343
 C         1.631508         1.949070         0.021739
 O         1.868373         2.369368        -1.286672
 C         0.991512         0.565582         0.328368
 C         0.760413        -0.825890        -0.291174
 H        -1.866885         1.629810         0.381991
 H        -1.399324         3.236432         0.399457
 H        -0.904056         2.220677        -1.100147
 H         1.783059         0.430722         2.806549
 H         3.108396         2.707917         1.655564
 H         3.383080         1.101522         0.928524
 H         1.152159         3.025621        -1.479739
 H         0.169752        -1.496512         0.429084
 H         0.126008        -0.625962        -1.164142
 H         1.768296        -1.217193        -0.523804
