19
Iteration:  4270charge 0 multiplicity 1
 C        -1.015056         2.456516         0.050709
 C         0.196469         1.706446         0.643471
 O         0.373083         1.892530         2.096580
 C         1.503670         0.995392         1.792225
 C         2.589676         2.052389         1.107567
 C         1.643190         1.839000        -0.030006
 O         1.869647         2.311709        -1.271518
 C         1.003692         0.570444         0.386957
 C         0.776126        -0.743347        -0.168983
 H        -1.976760         1.915897         0.340336
 H        -0.979264         3.576580         0.397262
 H        -0.937632         2.297668        -1.028593
 H         1.887388         0.199722         2.509964
 H         2.607225         3.004647         1.683941
 H         3.603525         1.773965         0.807784
 H         2.223390         3.220348        -1.263795
 H         0.126573        -1.315024         0.474313
 H         0.266193        -0.681872        -1.096754
 H         1.619573        -1.422686        -0.427719
