19
Iteration:  3892charge 0 multiplicity 1
 C        -0.941948         2.359913        -0.005021
 C         0.184640         1.776112         0.683788
 O         0.323499         1.872155         2.068102
 C         1.595351         1.038250         1.865369
 C         2.548259         2.020134         1.169596
 C         1.599826         1.922392         0.001937
 O         1.769125         2.406431        -1.288230
 C         0.999570         0.540931         0.481592
 C         0.878978        -0.744090        -0.271094
 H        -1.916317         1.832795         0.027845
 H        -1.125242         3.396887         0.309656
 H        -0.811992         2.389727        -1.053954
 H         1.856053         0.516947         2.819130
 H         2.811523         2.928195         1.710088
 H         3.400201         1.449021         0.892301
 H         1.835018         1.607397        -1.888364
 H         0.191545        -1.415574         0.192593
 H         0.729377        -0.557811        -1.330807
 H         1.863825        -1.197023        -0.283060
