19
Iteration:  1880charge 0 multiplicity 1
 C        -1.045730         2.212672        -0.144776
 C         0.201388         1.871455         0.536672
 O         0.398083         2.069338         1.963726
 C         1.538778         1.027095         1.916317
 C         2.565011         1.845074         1.111891
 C         1.566371         1.891146        -0.019993
 O         1.784896         2.606849        -1.173747
 C         1.002767         0.505780         0.505153
 C         0.911077        -0.846406        -0.038705
 H        -1.886717         1.498885         0.131578
 H        -1.430374         3.167802         0.055741
 H        -0.901120         2.286373        -1.245941
 H         1.794984         0.342899         2.832184
 H         3.034914         2.605844         1.757247
 H         3.312734         1.145487         0.770412
 H         2.350924         2.109045        -1.825919
 H         0.300730        -1.453801         0.661173
 H         0.344034        -0.890357        -0.961939
 H         1.969334        -1.325100        -0.229247
