19
Iteration:   878
 C        -1.070085         2.290800        -0.057694
 C         0.217526         1.786127         0.535969
 O         0.327240         1.866640         1.985945
 C         1.571453         1.037964         1.850492
 C         2.539026         2.084752         1.197783
 C         1.641360         1.936016        -0.006018
 O         1.797405         2.458113        -1.220891
 C         1.072050         0.526082         0.479011
 C         0.853987        -0.806675        -0.107482
 H        -1.809239         1.826899         0.501450
 H        -1.157914         3.372506         0.065779
 H        -1.209838         1.941094        -1.104374
 H         1.785880         0.355131         2.691386
 H         2.549785         3.094889         1.653446
 H         3.512595         1.725798         0.820437
 H         2.554241         2.188552        -1.755645
 H         0.036632        -1.466361         0.200980
 H         0.755446        -0.778357        -1.164509
 H         1.777132        -1.344410         0.128109
