19
Iteration:  2631charge 0 multiplicity 1
 C        -1.029844         2.281776         0.121286
 C         0.212666         1.675082         0.545868
 O         0.243737         1.853481         1.999730
 C         1.484561         1.041738         1.803348
 C         2.486967         2.181089         1.219092
 C         1.647269         1.979014        -0.020524
 O         1.884671         2.497962        -1.333004
 C         1.168706         0.527610         0.355593
 C         0.839876        -0.901360        -0.132676
 H        -1.918327         1.908463         0.590596
 H        -0.988450         3.246305         0.519806
 H        -1.074152         2.267718        -1.007966
 H         1.649688         0.652925         2.863891
 H         2.496936         3.280502         1.642908
 H         3.444602         1.601667         1.137146
 H         2.792654         2.213534        -1.576681
 H         0.325121        -1.468038         0.642432
 H         0.296622        -0.964006        -1.004524
 H         1.890443        -1.411481        -0.208868
