19
Iteration:  3193charge 0 multiplicity 1
 C        -1.079794         2.402512         0.042790
 C         0.229809         1.820559         0.574982
 O         0.278908         1.947048         2.002660
 C         1.590761         0.987070         1.945771
 C         2.522837         2.077101         1.295908
 C         1.611011         1.894574        -0.047893
 O         1.831244         2.358539        -1.380718
 C         1.052418         0.500004         0.496817
 C         0.912256        -0.824279        -0.233932
 H        -1.993020         1.957667         0.584481
 H        -0.982873         3.520487         0.036127
 H        -1.230575         2.102498        -1.061551
 H         1.779685         0.311225         2.805586
 H         2.304517         3.049039         1.666268
 H         3.508718         1.720106         1.202166
 H         2.693606         2.098936        -1.753495
 H         0.222464        -1.571619         0.198199
 H         0.672870        -0.601355        -1.236471
 H         1.882773        -1.396519        -0.305869
