19
Iteration:  2452charge 0 multiplicity 1
 C        -1.050347         2.341202        -0.023037
 C         0.185679         1.817622         0.585843
 O         0.285618         1.876889         2.036522
 C         1.479350         1.030747         1.865020
 C         2.526330         1.961399         1.134520
 C         1.580495         1.928281        -0.029399
 O         1.820334         2.525710        -1.269570
 C         1.044417         0.562538         0.478079
 C         1.051252        -0.856006        -0.134181
 H        -1.821952         1.613880         0.264707
 H        -1.241410         3.339964         0.439853
 H        -1.001663         2.418280        -1.038878
 H         1.636945         0.375817         2.698002
 H         2.615409         2.962436         1.607786
 H         3.586875         1.555455         1.014287
 H         2.160930         2.015136        -2.004939
 H         0.643119        -1.571785         0.606465
 H         0.490376        -0.965308        -1.041402
 H         2.119815        -1.238258        -0.357650
