19
Iteration:  2992
 C        -1.035567         2.213343        -0.157740
 C         0.184141         1.789762         0.606668
 O         0.351653         1.965911         2.117592
 C         1.579080         1.071235         1.909642
 C         2.605229         2.008097         1.188940
 C         1.649719         1.896740         0.023393
 O         1.758890         2.519946        -1.240614
 C         1.047527         0.516356         0.531242
 C         0.825076        -0.808253        -0.267371
 H        -1.968489         1.641368         0.163839
 H        -1.264724         3.363986        -0.185963
 H        -0.849552         1.884891        -1.163922
 H         1.679432         0.659779         2.815487
 H         2.890830         2.900581         1.661503
 H         3.495512         1.419052         1.151038
 H         2.189877         1.902645        -1.831014
 H         0.038475        -1.520088         0.031873
 H         0.576524        -0.526405        -1.364827
 H         1.874539        -1.367988        -0.334911
