19
Iteration:  2961charge 0 multiplicity 1
 C        -1.127129         2.160273        -0.000865
 C         0.227286         1.894760         0.568256
 O         0.350252         1.987759         2.049203
 C         1.467102         0.993015         1.865343
 C         2.590551         1.925690         1.182831
 C         1.610230         1.992156         0.041085
 O         1.823634         2.352047        -1.238037
 C         1.014973         0.636053         0.439317
 C         0.977896        -0.636430        -0.264998
 H        -1.740305         1.419694         0.480542
 H        -1.312484         3.254081         0.026818
 H        -1.205514         1.801486        -1.020888
 H         1.604864         0.357398         2.797494
 H         2.843923         2.801080         1.736873
 H         3.317302         1.207625         0.916384
 H         2.234902         1.565926        -1.692929
 H         0.200427        -1.343093        -0.019282
 H         0.920444        -0.444588        -1.276622
 H         1.917044        -1.258968         0.084703
