19
Iteration:   549
 C        -1.164342         2.273091         0.038075
 C         0.218345         1.913065         0.489299
 O         0.275582         1.863413         2.011000
 C         1.526034         1.041279         1.894590
 C         2.602322         2.008891         1.218987
 C         1.618306         2.001127        -0.013555
 O         1.869693         2.386273        -1.304982
 C         1.037178         0.633299         0.365913
 C         0.945882        -0.832407        -0.115929
 H        -2.071013         1.623240         0.228559
 H        -1.614163         3.227981         0.404479
 H        -1.100485         2.324466        -1.038189
 H         1.836868         0.431046         2.826257
 H         3.082342         2.838262         1.656738
 H         3.309826         1.231050         0.961775
 H         2.655159         1.892440        -1.554696
 H         0.184270        -1.531333         0.603577
 H         0.754764        -0.948244        -1.170364
 H         1.925286        -1.165578         0.230957
