19
Iteration:  4727
 C        -1.050348         2.237097         0.063180
 C         0.179536         1.811484         0.649760
 O         0.412140         1.999269         2.080050
 C         1.537928         1.035822         2.012054
 C         2.658173         1.860308         1.184176
 C         1.637769         1.934567        -0.034687
 O         1.837635         2.322026        -1.356454
 C         0.976520         0.602622         0.443720
 C         0.807219        -0.694216        -0.373036
 H        -1.751718         1.526238         0.427404
 H        -1.198843         3.215533         0.404997
 H        -1.156622         2.324717        -1.016191
 H         1.731186         0.492935         2.957175
 H         2.920482         2.752349         1.734103
 H         3.475035         1.214192         0.929208
 H         1.368924         3.144193        -1.568849
 H        -0.075363        -1.343755        -0.127386
 H         0.682678        -0.278911        -1.373217
 H         1.748398        -1.273956        -0.304940
