19
Iteration:  2562
 C        -1.003159         2.045939        -0.206517
 C         0.235476         1.862071         0.618311
 O         0.347105         1.922435         2.125744
 C         1.553242         1.054212         1.985084
 C         2.621360         1.902463         1.175307
 C         1.638047         2.034952         0.025637
 O         1.655078         2.443727        -1.292374
 C         1.003935         0.615645         0.574803
 C         0.870431        -0.639145        -0.293467
 H        -1.843313         1.405418         0.167559
 H        -1.435643         3.036029        -0.281010
 H        -0.627352         1.702752        -1.144654
 H         1.923067         0.384888         2.774505
 H         2.998439         2.851566         1.709243
 H         3.489765         1.246899         0.828982
 H         2.550911         2.392424        -1.727532
 H         0.056026        -1.256294         0.120847
 H         0.753867        -0.446742        -1.329598
 H         1.752543        -1.309593        -0.011942
