19
Iteration:  1641charge 0 multiplicity 1
 C        -1.071289         2.410915        -0.137716
 C         0.181413         1.822304         0.605341
 O         0.331655         1.842580         2.097963
 C         1.560536         1.106139         1.890222
 C         2.621753         2.025050         1.182372
 C         1.643978         1.935696        -0.008848
 O         1.728241         2.380097        -1.299208
 C         1.073596         0.579251         0.409461
 C         0.879947        -0.831346        -0.081396
 H        -1.851412         1.631934         0.022500
 H        -1.545286         3.311634         0.191538
 H        -0.733472         2.457692        -1.281187
 H         1.743287         0.314628         2.577276
 H         2.925101         2.952015         1.713084
 H         3.613549         1.454008         1.037631
 H         2.477511         2.001150        -1.830238
 H         0.032783        -1.374479         0.403302
 H         0.645792        -0.957798        -1.126033
 H         1.744681        -1.553892         0.183000
