19
Iteration:  1175
 C        -1.100512         2.153317        -0.030760
 C         0.140385         1.915559         0.610318
 O         0.310445         2.004907         2.078266
 C         1.522268         1.101642         1.908823
 C         2.637951         1.988666         1.200655
 C         1.572935         1.979285        -0.002728
 O         1.888126         2.346705        -1.314125
 C         1.031526         0.603166         0.487237
 C         0.872473        -0.802415        -0.274230
 H        -1.764912         1.289757         0.170319
 H        -1.499988         3.021694         0.533296
 H        -0.959203         2.282045        -1.211936
 H         1.669958         0.338106         2.771505
 H         2.989335         2.868279         1.719666
 H         3.521678         1.273056         1.011945
 H         2.665211         1.892943        -1.659453
 H         0.411834        -1.624496         0.270212
 H         0.354568        -0.752769        -1.220024
 H         1.999846        -1.102005        -0.420427
