19
Iteration:  2109
 C        -1.020552         2.179013        -0.120690
 C         0.222942         1.864427         0.609708
 O         0.341934         1.790361         2.086728
 C         1.627165         1.066895         1.896100
 C         2.539071         2.162139         1.271100
 C         1.622880         1.937722         0.035556
 O         1.770342         2.333487        -1.376988
 C         1.179380         0.607038         0.393193
 C         0.698839        -0.726532        -0.144206
 H        -1.896525         1.525897         0.118002
 H        -1.335233         3.189995        -0.051453
 H        -0.668320         1.969774        -1.243180
 H         1.934390         0.344110         2.806821
 H         2.562192         3.164299         1.855972
 H         3.556825         1.732864         1.238779
 H         2.690614         2.648870        -1.556412
 H         0.104559        -1.237623         0.667782
 H         0.019987        -0.671735        -1.126895
 H         1.493383        -1.369541        -0.374677
