19
Iteration:  3369
 C        -1.111843         2.149138         0.109317
 C         0.205200         1.893796         0.568563
 O         0.301475         2.054657         2.053416
 C         1.429231         1.125847         1.866961
 C         2.651645         1.921474         1.186125
 C         1.673517         1.860068         0.003511
 O         1.881407         2.385079        -1.239932
 C         0.999824         0.603791         0.466677
 C         0.935430        -0.730378        -0.337426
 H        -1.963379         1.554378         0.683651
 H        -1.530048         3.183502         0.085054
 H        -1.047772         1.811880        -0.940082
 H         1.544991         0.388930         2.598583
 H         3.066383         2.833559         1.700235
 H         3.579759         1.381919         0.963620
 H         2.081141         1.621084        -1.857431
 H         0.099820        -1.452117        -0.013112
 H         0.704124        -0.643381        -1.375801
 H         1.839493        -1.215857        -0.238767
