19
Iteration:  1077
 C        -0.899927         2.201394        -0.181828
 C         0.246461         1.840044         0.623825
 O         0.310002         1.923171         2.022103
 C         1.557618         1.075942         1.874605
 C         2.613874         1.971562         1.201873
 C         1.628714         1.939283         0.038538
 O         1.601980         2.498215        -1.257107
 C         1.009591         0.548683         0.494441
 C         0.837071        -0.811467        -0.141128
 H        -1.724689         1.768657         0.334538
 H        -1.011463         3.286774        -0.118185
 H        -0.680152         1.886419        -1.177133
 H         1.696053         0.559079         2.855192
 H         3.064227         2.871822         1.595438
 H         3.508953         1.310148         0.938785
 H         2.512283         2.390757        -1.536570
 H         0.073757        -1.494671         0.217083
 H         0.875712        -0.691790        -1.199455
 H         1.852813        -1.437395        -0.089352
