19
Iteration:  4920charge 0 multiplicity 1
 C        -1.162789         2.161527         0.058140
 C         0.284649         1.865081         0.602340
 O         0.430785         1.923105         2.045298
 C         1.563282         0.998681         1.879737
 C         2.710018         1.980781         1.203647
 C         1.734632         1.879685         0.006325
 O         1.848380         2.405535        -1.308064
 C         1.014322         0.558461         0.437618
 C         0.630842        -0.685785        -0.298049
 H        -1.742828         1.462606         0.594051
 H        -1.520419         3.125751         0.442956
 H        -1.164084         2.123347        -1.043608
 H         1.715456         0.367649         2.780510
 H         2.698564         2.907960         1.758551
 H         3.712302         1.672642         0.826923
 H         1.562333         3.352383        -1.216557
 H        -0.252602        -1.339801        -0.049951
 H         0.472171        -0.272537        -1.299908
 H         1.461187        -1.394469        -0.286880
