19
Iteration:  3832charge 0 multiplicity 1
 C        -1.095175         2.417214         0.092702
 C         0.176928         1.774457         0.538721
 O         0.281540         1.854819         2.026295
 C         1.483015         0.998843         1.829601
 C         2.549595         2.003551         1.225943
 C         1.631293         1.953657        -0.058193
 O         1.858068         2.359435        -1.351658
 C         1.149901         0.593951         0.400027
 C         0.971687        -0.835313        -0.132859
 H        -1.920271         1.946293         0.619701
 H        -1.031990         3.489322         0.426653
 H        -1.051317         2.455903        -1.042920
 H         1.682610         0.344992         2.663055
 H         2.939516         2.873640         1.766989
 H         3.451042         1.405786         0.904627
 H         1.497763         3.257888        -1.408312
 H         0.366120        -1.387552         0.602787
 H         0.270580        -0.989331        -0.922720
 H         1.853548        -1.338446        -0.183821
