19
Iteration:  3106
 C        -1.087550         2.193935        -0.030719
 C         0.240121         1.914290         0.556174
 O         0.347863         1.984879         2.009260
 C         1.525327         1.068355         1.898903
 C         2.622648         1.924492         1.245262
 C         1.626085         1.925608        -0.026981
 O         1.796421         2.485871        -1.238034
 C         0.959871         0.539207         0.441829
 C         0.922039        -0.812381        -0.191674
 H        -1.780654         1.362168         0.187071
 H        -1.479130         3.160291         0.264808
 H        -1.005645         2.173568        -1.161308
 H         1.622787         0.490703         2.876991
 H         2.932864         2.924005         1.618006
 H         3.540699         1.332644         1.089218
 H         2.263976         1.876652        -1.807025
 H         0.081752        -1.466896         0.204697
 H         0.526214        -0.613061        -1.176850
 H         1.980030        -1.431612        -0.165260
