19
Iteration:  2537charge 0 multiplicity 1
 C        -1.087473         2.138576        -0.071172
 C         0.184937         1.767124         0.599036
 O         0.353186         2.031377         2.000456
 C         1.573871         1.079478         1.934467
 C         2.592664         2.035188         1.250439
 C         1.630861         1.875457         0.011268
 O         1.716423         2.398477        -1.189827
 C         1.116053         0.524000         0.525509
 C         0.884853        -0.717319        -0.358758
 H        -1.947698         1.568683         0.238707
 H        -1.384180         3.222809         0.194513
 H        -0.876937         2.046177        -1.122397
 H         1.829949         0.499963         2.719208
 H         2.695976         2.987938         1.675382
 H         3.532806         1.553305         1.016506
 H         2.543375         2.276922        -1.706005
 H         0.037654        -1.335531         0.048198
 H         0.697569        -0.429607        -1.465863
 H         1.700316        -1.325298        -0.269448
