19
Iteration:  3696charge 0 multiplicity 1
 C        -1.043506         2.286915        -0.046063
 C         0.174715         1.837843         0.628805
 O         0.362642         1.770935         2.085790
 C         1.575070         1.064047         1.846343
 C         2.496769         2.038867         1.138530
 C         1.602731         1.871777        -0.057057
 O         1.901629         2.469278        -1.254979
 C         1.007034         0.635310         0.394622
 C         0.844931        -0.771193        -0.124283
 H        -1.953882         1.696687         0.126880
 H        -1.471551         3.226386         0.422837
 H        -0.902653         2.364150        -1.114310
 H         1.856863         0.582578         2.806425
 H         2.669417         3.103202         1.506077
 H         3.465766         1.537435         1.004078
 H         2.400209         1.825145        -1.831216
 H         0.149192        -1.327452         0.440944
 H         0.536774        -0.891294        -1.135645
 H         1.825073        -1.152048         0.091846
