19
Iteration:  1848charge 0 multiplicity 1
 C        -0.978154         2.325895        -0.093903
 C         0.249195         1.778810         0.574033
 O         0.312539         1.928100         2.016597
 C         1.541121         1.147468         1.937590
 C         2.554950         2.030420         1.169112
 C         1.684537         1.824337        -0.038843
 O         1.711796         2.500259        -1.285224
 C         1.039487         0.542120         0.424660
 C         0.818674        -0.907660        -0.094861
 H        -1.849023         1.628040        -0.110698
 H        -1.207261         3.180179         0.455177
 H        -0.724782         2.595862        -1.156271
 H         1.986019         0.505730         2.778334
 H         2.808521         2.920857         1.788617
 H         3.481319         1.390246         1.104280
 H         2.570009         2.403060        -1.692279
 H         0.085938        -1.382083         0.577411
 H         0.494285        -0.982277        -1.073640
 H         1.735136        -1.633873         0.070828
