19
Iteration:  4789charge 0 multiplicity 1
 C        -1.001296         2.499370         0.096139
 C         0.169011         1.810819         0.721976
 O         0.345647         1.857955         2.145841
 C         1.551038         1.011555         1.817243
 C         2.552440         1.938918         1.159980
 C         1.488198         1.962851         0.017892
 O         1.833904         2.266662        -1.406071
 C         1.002935         0.589482         0.354758
 C         0.976438        -0.807026        -0.246898
 H        -1.979927         2.144035         0.548474
 H        -0.903517         3.653363         0.338071
 H        -1.099526         2.232498        -1.003823
 H         1.843514         0.316586         2.664884
 H         2.888793         2.822118         1.737809
 H         3.484086         1.307943         0.910095
 H         1.764954         3.236502        -1.506641
 H         0.285635        -1.460699         0.137732
 H         0.679069        -0.669289        -1.291143
 H         1.991492        -1.288658        -0.442978
