19
Iteration:  2843charge 0 multiplicity 1
 C        -0.956403         2.210185        -0.227491
 C         0.210115         1.845926         0.572431
 O         0.332804         1.862762         2.098705
 C         1.521786         1.039716         1.827874
 C         2.670835         1.954436         1.159556
 C         1.600448         1.977414         0.071215
 O         1.705897         2.605514        -1.189180
 C         0.985155         0.602760         0.414544
 C         0.888179        -0.818278        -0.109527
 H        -1.678440         1.425919         0.004081
 H        -1.351227         3.242276        -0.107850
 H        -0.797073         2.098562        -1.307797
 H         1.895617         0.408101         2.765206
 H         2.987856         2.877580         1.805311
 H         3.419021         1.135074         0.947512
 H         2.129648         1.860233        -1.650462
 H         0.398886        -1.462135         0.675108
 H         0.213367        -1.057212        -1.051913
 H         1.811675        -1.379579        -0.149262
