19
Iteration:  4373charge 0 multiplicity 1
 C        -1.058379         2.382044         0.081622
 C         0.232345         1.823243         0.713134
 O         0.392197         1.864528         2.020351
 C         1.528662         1.081847         1.933063
 C         2.610725         1.921266         1.178178
 C         1.596726         1.896600        -0.021712
 O         1.845710         2.256684        -1.346843
 C         1.043488         0.583018         0.393072
 C         0.753864        -0.686791        -0.266156
 H        -1.908889         1.710626         0.481986
 H        -1.045223         3.474661         0.040709
 H        -0.961570         2.200856        -1.036597
 H         1.765005         0.409974         2.689687
 H         2.774047         2.962943         1.571773
 H         3.589759         1.409404         0.942005
 H         1.936153         3.207239        -1.439738
 H        -0.017809        -1.240358         0.237284
 H         0.573393        -0.618422        -1.352137
 H         1.696750        -1.111984        -0.064468
