19
Iteration:  4244
 C        -1.022206         2.455744        -0.036093
 C         0.278949         1.792739         0.603696
 O         0.378105         1.799940         2.126134
 C         1.599182         1.070159         1.883745
 C         2.542455         1.942329         1.207702
 C         1.624619         1.952377        -0.099160
 O         1.816816         2.435867        -1.344280
 C         1.036578         0.523782         0.412623
 C         0.687104        -0.822308        -0.133448
 H        -1.891232         2.000163         0.255614
 H        -1.147473         3.506456         0.127145
 H        -0.892820         2.055215        -1.047489
 H         2.124239         0.496762         2.591827
 H         2.729468         2.821247         1.768578
 H         3.511608         1.442372         1.079980
 H         2.367151         3.257256        -1.337738
 H         0.064009        -1.568255         0.523965
 H         0.205986        -0.922900        -1.209744
 H         1.545296        -1.472774        -0.350237
