19
Iteration:  3485charge 0 multiplicity 1
 C        -1.020864         2.316235        -0.064019
 C         0.273180         1.817065         0.574411
 O         0.353855         1.823832         1.993566
 C         1.543304         1.009986         1.835688
 C         2.555810         2.043507         1.172513
 C         1.680190         1.926149         0.012566
 O         1.748774         2.507483        -1.285815
 C         1.020293         0.551364         0.442444
 C         0.821773        -0.789961        -0.054045
 H        -1.864703         1.610345         0.088170
 H        -1.479623         3.277625         0.370488
 H        -0.836828         2.286253        -1.174098
 H         1.824209         0.397983         2.675965
 H         2.672966         2.902818         1.837619
 H         3.589353         1.623705         1.201340
 H         2.325244         1.966506        -1.872926
 H         0.099637        -1.289763         0.520087
 H         0.425650        -0.836929        -1.076113
 H         1.811910        -1.356692         0.048461
