19
Iteration:  1064charge 0 multiplicity 1
 C        -0.997332         2.215449        -0.168872
 C         0.214131         1.748542         0.624549
 O         0.362338         2.026787         2.098254
 C         1.512938         1.150660         1.992463
 C         2.661130         1.880385         1.233529
 C         1.624743         1.907982         0.000779
 O         1.627507         2.524588        -1.269021
 C         1.055911         0.532976         0.417021
 C         0.902572        -0.834811        -0.240120
 H        -1.888513         1.738771        -0.017680
 H        -1.215581         3.262262        -0.293624
 H        -0.838967         1.819649        -1.234401
 H         1.830825         0.583084         2.852282
 H         2.858590         2.813166         1.773977
 H         3.516625         1.220975         1.041231
 H         2.440614         2.397234        -1.823001
 H         0.035542        -1.250011         0.224656
 H         0.602591        -0.804204        -1.153495
 H         1.819921        -1.437146         0.038176
