19
Iteration:  2074charge 0 multiplicity 1
 C        -1.045380         2.377404        -0.034302
 C         0.188885         1.753385         0.582360
 O         0.261146         1.783162         2.015372
 C         1.577683         1.071043         1.871247
 C         2.494067         2.131676         1.201031
 C         1.617468         1.877537        -0.041723
 O         1.829426         2.413362        -1.347473
 C         1.183229         0.558940         0.421112
 C         0.854922        -0.797667        -0.045569
 H        -1.949240         1.690128         0.096707
 H        -1.301984         3.332428         0.465929
 H        -0.943104         2.606990        -1.080012
 H         2.058008         0.446145         2.659366
 H         2.507673         3.147847         1.755480
 H         3.508724         1.715974         0.968634
 H         2.767200         2.159880        -1.545545
 H         0.407819        -1.325843         0.832376
 H         0.064741        -0.820470        -0.935483
 H         1.672895        -1.399106        -0.378164
