19
Iteration:  4709charge 0 multiplicity 1
 C        -1.115392         2.253070         0.074123
 C         0.211431         1.853234         0.583412
 O         0.410151         1.873579         2.057805
 C         1.597146         0.996994         1.800995
 C         2.609638         1.994101         1.179568
 C         1.657303         1.865095         0.036464
 O         1.888875         2.282640        -1.327160
 C         1.050440         0.574263         0.529063
 C         0.731970        -0.603211        -0.279508
 H        -2.054090         1.663787         0.406509
 H        -1.495418         3.377838         0.214643
 H        -1.047726         2.283070        -1.032987
 H         1.881688         0.377721         2.614890
 H         2.645764         2.999271         1.731443
 H         3.548383         1.413440         0.998512
 H         1.709575         3.238689        -1.255746
 H        -0.186900        -1.168813         0.098664
 H         0.478123        -0.246121        -1.300273
 H         1.533755        -1.283098        -0.274400
