19
Iteration:   156charge 0 multiplicity 1
 C        -1.059942         2.246509        -0.086991
 C         0.141858         1.697006         0.585207
 O         0.365718         1.828219         2.046453
 C         1.629964         1.067055         1.864744
 C         2.530196         2.172750         1.163693
 C         1.732486         1.911180        -0.069950
 O         1.844060         2.479057        -1.282386
 C         1.075264         0.561624         0.527008
 C         0.706878        -0.811149        -0.083749
 H        -1.984426         1.812018         0.210270
 H        -1.120233         3.309414         0.003287
 H        -1.016303         2.184158        -1.204802
 H         1.975789         0.523987         2.652285
 H         2.426120         3.134087         1.640914
 H         3.570649         1.886057         1.150663
 H         2.461498         1.890218        -1.813896
 H        -0.251520        -1.293068         0.296881
 H         0.705102        -0.568070        -1.130540
 H         1.494302        -1.565415         0.153490
