19
Iteration:  1686
 C        -0.999798         2.415420        -0.077114
 C         0.215635         1.769054         0.549306
 O         0.308368         1.857456         2.068738
 C         1.574019         1.113035         1.861531
 C         2.526363         2.162923         1.211047
 C         1.683749         1.871643         0.021503
 O         1.744514         2.377882        -1.243305
 C         1.107205         0.487210         0.444039
 C         0.811142        -0.940425        -0.172917
 H        -1.963264         2.270931         0.380667
 H        -0.976617         3.500254         0.064024
 H        -0.992740         2.353308        -1.358762
 H         2.030000         0.652896         2.777856
 H         2.514453         3.229846         1.472244
 H         3.680258         1.846700         1.074887
 H         2.339358         1.949489        -1.914097
 H         0.235257        -1.457282         0.643082
 H         0.218255        -0.687571        -1.111425
 H         1.740713        -1.607029        -0.298425
