19
Iteration:  4914charge 0 multiplicity 1
 C        -1.121467         2.139750         0.055596
 C         0.290550         1.870877         0.635151
 O         0.405463         1.992226         2.047064
 C         1.601605         0.993727         1.858029
 C         2.695095         1.939295         1.194168
 C         1.733588         1.879539         0.043943
 O         1.829039         2.403001        -1.244537
 C         0.987566         0.587879         0.383930
 C         0.645915        -0.689853        -0.349961
 H        -1.617203         1.210147         0.524820
 H        -1.471890         3.126793         0.410847
 H        -1.207536         2.109615        -1.046077
 H         1.865852         0.503292         2.785340
 H         2.728773         3.030823         1.508707
 H         3.651774         1.455246         0.982705
 H         1.464330         3.288146        -1.266974
 H        -0.220741        -1.304319         0.082580
 H         0.335845        -0.537611        -1.422001
 H         1.431943        -1.490052        -0.269228
