19
Iteration:   458charge 0 multiplicity 1
 C        -0.979306         2.289539        -0.072968
 C         0.255532         1.811580         0.527543
 O         0.287845         1.808101         2.056008
 C         1.497306         1.047286         1.853018
 C         2.519257         2.089477         1.251346
 C         1.633625         1.977338         0.029631
 O         1.733704         2.301116        -1.321229
 C         1.181065         0.591361         0.442635
 C         0.831411        -0.680980        -0.117916
 H        -1.785931         1.928934         0.491057
 H        -0.950379         3.343413         0.021088
 H        -0.899859         1.880150        -1.101161
 H         1.972150         0.460678         2.653351
 H         2.380182         3.013825         1.690383
 H         3.515014         1.827551         1.080102
 H         2.556283         1.881116        -1.703808
 H         0.234760        -1.459204         0.502057
 H         0.395215        -0.521031        -1.114461
 H         1.660426        -1.242142        -0.253951
