19
Iteration:  3250
 C        -1.034378         2.325421        -0.172048
 C         0.178203         1.882482         0.549564
 O         0.316980         1.888319         2.125307
 C         1.509985         1.055961         1.898638
 C         2.606895         1.846757         1.129111
 C         1.605168         1.980800        -0.052978
 O         1.826074         2.650837        -1.294220
 C         0.986628         0.513986         0.503886
 C         0.904869        -0.937968        -0.001209
 H        -1.919194         1.587109        -0.073732
 H        -1.424165         3.312877         0.037765
 H        -0.703417         2.270178        -1.192917
 H         1.804457         0.322370         2.565393
 H         3.065035         2.759103         1.534036
 H         3.434114         1.192967         1.026278
 H         2.370155         2.168950        -1.928844
 H         0.444695        -1.675338         0.624673
 H         0.302291        -0.963601        -0.901144
 H         1.938184        -1.226393        -0.260565
