19
Iteration:  3029
 C        -1.005426         2.343568        -0.158407
 C         0.208692         1.705405         0.656153
 O         0.312843         1.771679         2.032834
 C         1.559133         1.029696         1.812914
 C         2.563829         2.107832         1.289008
 C         1.671185         1.975214        -0.041152
 O         1.768047         2.477772        -1.345622
 C         1.162355         0.521785         0.462983
 C         0.735889        -0.795806        -0.071734
 H        -1.902537         1.856248         0.162064
 H        -1.072004         3.391279         0.066471
 H        -0.974072         2.217327        -1.289821
 H         1.979480         0.313552         2.689895
 H         2.455980         3.054395         1.857038
 H         3.498976         1.583719         1.136952
 H         2.651759         2.761854        -1.622333
 H         0.277985        -1.314897         0.798144
 H         0.108775        -0.687983        -0.898744
 H         1.626749        -1.453268        -0.314609
