19
Iteration:  3588charge 0 multiplicity 1
 C        -1.047318         2.271990        -0.084469
 C         0.167569         1.762386         0.589010
 O         0.342308         1.785143         2.121036
 C         1.608023         1.071184         1.821885
 C         2.528833         2.146263         1.203484
 C         1.626170         1.970495         0.049547
 O         1.841646         2.292929        -1.246367
 C         1.103357         0.563578         0.483540
 C         0.801716        -0.628187        -0.248289
 H        -1.915403         1.857817         0.363646
 H        -1.064430         3.435380        -0.170914
 H        -1.128137         2.121101        -1.124201
 H         1.924981         0.313586         2.602374
 H         2.617061         3.173172         1.656497
 H         3.507242         1.765521         0.917582
 H         2.199023         1.505252        -1.701231
 H         0.000813        -1.252277         0.403637
 H         0.516151        -0.377906        -1.294345
 H         1.636489        -1.316571        -0.434220
