19
Iteration:  3137charge 0 multiplicity 1
 C        -1.046308         2.206167        -0.122393
 C         0.198980         1.842386         0.635449
 O         0.396603         1.922219         2.105306
 C         1.533473         1.061202         1.931504
 C         2.568339         1.963416         1.281409
 C         1.585823         1.969550         0.010237
 O         1.731331         2.287769        -1.321671
 C         1.014574         0.617038         0.491961
 C         0.935742        -0.620704        -0.282301
 H        -1.984689         1.720549         0.230419
 H        -1.328763         3.332934        -0.088899
 H        -0.773128         1.988812        -1.247492
 H         1.828446         0.448547         2.900459
 H         2.955350         2.903470         1.703912
 H         3.526927         1.428829         1.173458
 H         2.231086         1.583207        -1.815878
 H        -0.051168        -1.144061        -0.130145
 H         0.902037        -0.361971        -1.344933
 H         1.849852        -1.355304        -0.279936
