19
Iteration:  1582
 C        -1.160955         2.178313         0.010440
 C         0.228472         1.871933         0.573740
 O         0.319420         2.007453         1.955905
 C         1.572877         1.129039         1.963367
 C         2.628441         1.965651         1.224194
 C         1.688248         1.912288        -0.034763
 O         1.875850         2.353992        -1.267989
 C         0.986345         0.588448         0.489827
 C         0.814263        -0.761854        -0.265910
 H        -1.819079         1.281286         0.351253
 H        -1.595970         3.159004         0.389734
 H        -1.254520         2.174161        -0.985312
 H         1.716140         0.499557         2.856592
 H         2.932859         2.913217         1.775291
 H         3.460168         1.281692         1.124339
 H         2.551790         1.937397        -1.788189
 H         0.126181        -1.403688         0.259100
 H         0.528797        -0.663141        -1.307872
 H         1.833145        -1.188803        -0.233670
