19
Iteration:  1614charge 0 multiplicity 1
 C        -1.058894         2.221619        -0.068420
 C         0.212341         1.797545         0.587793
 O         0.371373         2.076170         2.017490
 C         1.538630         1.074214         1.902425
 C         2.555476         1.902489         1.104092
 C         1.571535         1.910599        -0.049767
 O         1.837789         2.430478        -1.245029
 C         0.961704         0.533493         0.527439
 C         0.897338        -0.755994        -0.137094
 H        -1.829973         1.389629         0.106857
 H        -1.512562         3.081071         0.540717
 H        -1.010840         2.478727        -1.049703
 H         1.701123         0.278261         2.708771
 H         2.961406         2.796515         1.630816
 H         3.379484         1.253218         0.928541
 H         2.732732         2.227751        -1.635615
 H         0.138551        -1.463406         0.208690
 H         0.844751        -0.667083        -1.275018
 H         1.802380        -1.307363         0.060387
