19
Iteration:  2691charge 0 multiplicity 1
 C        -0.968021         2.265265        -0.077338
 C         0.220160         1.791964         0.617261
 O         0.313012         1.978605         2.043685
 C         1.465676         1.027634         1.871162
 C         2.553174         1.933785         1.196608
 C         1.571638         1.951418         0.023219
 O         1.646685         2.406537        -1.275612
 C         1.007036         0.511015         0.503128
 C         1.073758        -0.729976        -0.220831
 H        -1.814969         1.525094        -0.080126
 H        -1.241059         3.290897         0.351084
 H        -0.738465         2.548697        -1.093929
 H         1.899185         0.659349         2.838817
 H         2.877072         2.798847         1.686582
 H         3.419520         1.326708         0.993374
 H         2.563635         2.274197        -1.528125
 H         0.444026        -1.541816         0.274096
 H         0.761934        -0.699888        -1.363007
 H         2.073107        -0.986122        -0.341639
