19
Iteration:  1001
 C        -1.294946         2.310680         0.041624
 C         0.102988         1.780457         0.596933
 O         0.321711         1.852863         2.087716
 C         1.521676         1.128872         1.873262
 C         2.520843         2.087617         1.246425
 C         1.698451         1.892141        -0.064252
 O         1.960081         2.291689        -1.354872
 C         1.161169         0.599481         0.417518
 C         0.937170        -0.684806        -0.208956
 H        -2.021326         1.634784         0.465961
 H        -1.487052         3.373402         0.231050
 H        -1.148231         2.142903        -1.037495
 H         1.713541         0.308448         2.567339
 H         2.585874         2.951363         1.905445
 H         3.561200         1.633449         1.096496
 H         2.832425         1.833884        -1.569296
 H         0.372801        -1.243991         0.575176
 H         0.264129        -0.540963        -1.186028
 H         1.747576        -1.407881        -0.625351
