19
Iteration:  2303
 C        -1.101723         2.140735        -0.080896
 C         0.122112         1.856197         0.681996
 O         0.344476         1.944841         2.023069
 C         1.589162         1.034091         1.867508
 C         2.580926         1.927696         1.159641
 C         1.556000         2.001343        -0.007005
 O         1.904479         2.488843        -1.248389
 C         1.008398         0.649935         0.451985
 C         0.967140        -0.737245        -0.145000
 H        -1.997980         1.345750         0.071993
 H        -1.697031         3.019932         0.293591
 H        -1.024082         2.224270        -1.211050
 H         1.587001         0.155258         2.741402
 H         3.086119         2.760975         1.730655
 H         3.318669         1.262576         0.740918
 H         1.920113         1.772665        -1.914965
 H         0.486602        -1.446858         0.564289
 H         0.400646        -0.919061        -1.160185
 H         1.972413        -1.199626        -0.403384
