19
Iteration:  2505charge 0 multiplicity 1
 C        -1.142421         2.323142         0.119069
 C         0.200212         1.777929         0.572922
 O         0.228096         1.747141         2.037531
 C         1.570192         1.097047         1.862204
 C         2.473056         2.158000         1.201577
 C         1.648139         1.920735        -0.057741
 O         1.942036         2.388208        -1.329116
 C         1.102438         0.580915         0.477984
 C         0.925320        -0.770030        -0.223320
 H        -1.963772         1.672415         0.353890
 H        -1.201924         3.390298         0.512444
 H        -1.021888         2.401218        -0.926004
 H         1.873316         0.467861         2.565254
 H         2.515123         3.121374         1.689224
 H         3.482581         1.711063         1.060785
 H         2.318083         1.721333        -1.905441
 H         0.225160        -1.417058         0.350982
 H         0.531993        -0.764915        -1.272243
 H         1.890525        -1.153913        -0.215296
