19
Iteration:  2730
 C        -1.094717         2.202672        -0.100044
 C         0.125091         1.795422         0.655528
 O         0.327019         1.929198         2.060694
 C         1.567560         1.117096         1.937775
 C         2.567941         2.041739         1.216552
 C         1.648412         1.947436         0.073936
 O         1.779638         2.371325        -1.227947
 C         1.076561         0.607314         0.435570
 C         0.941751        -0.763298        -0.381666
 H        -1.976352         1.653021         0.165450
 H        -1.266874         3.260886         0.114493
 H        -0.892730         2.098117        -1.168534
 H         1.893461         0.575600         2.821068
 H         2.805835         2.964026         1.899114
 H         3.469311         1.381999         1.100994
 H         2.032660         1.594410        -1.795217
 H         0.230453        -1.456744        -0.008601
 H         0.760612        -0.513394        -1.341640
 H         1.937112        -1.369506        -0.176250
