19
Iteration:  2535charge 0 multiplicity 1
 C        -1.099896         2.153902        -0.050074
 C         0.197663         1.754214         0.597576
 O         0.344413         2.035330         2.001659
 C         1.579751         1.091168         1.943686
 C         2.575967         2.039218         1.243193
 C         1.641810         1.885191         0.025747
 O         1.724941         2.404765        -1.208402
 C         1.114148         0.512751         0.515727
 C         0.887219        -0.735382        -0.368292
 H        -1.956110         1.562360         0.235663
 H        -1.354843         3.221919         0.216233
 H        -0.846390         2.056442        -1.155635
 H         1.840352         0.427610         2.809109
 H         2.649663         2.989871         1.709882
 H         3.493110         1.573271         0.993715
 H         2.573287         2.206665        -1.698865
 H         0.015428        -1.297842         0.052895
 H         0.656042        -0.484541        -1.484090
 H         1.751687        -1.335772        -0.274259
