19
Iteration:  3812charge 0 multiplicity 1
 C        -1.168055         2.317930         0.035865
 C         0.175110         1.841507         0.596059
 O         0.316588         1.888341         2.048832
 C         1.577500         1.060123         1.864109
 C         2.650433         1.912056         1.216093
 C         1.680012         1.895133        -0.041536
 O         1.856415         2.438273        -1.366701
 C         0.944160         0.575374         0.390712
 C         0.936934        -0.820595        -0.145320
 H        -2.041842         1.779251         0.535487
 H        -1.487276         3.320016         0.176805
 H        -1.156483         2.121522        -1.130589
 H         1.729859         0.529153         2.788936
 H         2.738470         2.858580         1.679227
 H         3.628972         1.395644         1.266628
 H         2.327815         3.310981        -1.406820
 H         0.300768        -1.550035         0.419208
 H         0.354044        -0.854326        -1.096849
 H         1.981022        -1.148322        -0.163761
