19
Iteration:  4927charge 0 multiplicity 1
 C        -1.142782         2.193901         0.089655
 C         0.245646         1.849241         0.575944
 O         0.459869         1.855992         2.048716
 C         1.547698         1.007451         1.881347
 C         2.666276         2.000746         1.203928
 C         1.686652         1.901187        -0.046232
 O         1.877208         2.400683        -1.357406
 C         1.056667         0.546628         0.509196
 C         0.649091        -0.673210        -0.261127
 H        -1.992749         1.541936         0.501601
 H        -1.469676         3.204940         0.360315
 H        -1.222396         2.085931        -0.981070
 H         1.650129         0.258223         2.702797
 H         2.768937         2.856671         1.919150
 H         3.691639         1.695940         0.932274
 H         1.686840         3.367647        -1.242105
 H        -0.429265        -1.161126         0.013812
 H         0.608664        -0.198829        -1.320181
 H         1.513667        -1.307958        -0.401673
