19
Iteration:   389
 C        -1.208952         2.098206        -0.112490
 C         0.201296         1.900150         0.606688
 O         0.383053         2.001086         2.027484
 C         1.522538         1.091297         1.889180
 C         2.604767         1.887864         1.175858
 C         1.676274         1.976797         0.025125
 O         1.867340         2.470239        -1.282597
 C         0.979408         0.607387         0.452970
 C         0.867562        -0.789378        -0.144175
 H        -1.927891         1.395908         0.328246
 H        -1.552270         3.133336         0.181018
 H        -1.013992         2.015021        -1.160538
 H         1.617703         0.588747         2.816310
 H         3.023968         2.806057         1.655166
 H         3.393442         1.099577         0.995267
 H         2.712075         2.094660        -1.576485
 H         0.544202        -1.550210         0.513347
 H         0.332699        -0.802006        -1.131513
 H         1.842525        -1.205986        -0.276720
