19
Iteration:   919charge 0 multiplicity 1
 C        -0.931350         2.220574        -0.173389
 C         0.268717         1.834725         0.598386
 O         0.308309         1.938745         2.047774
 C         1.524250         1.003463         1.876314
 C         2.590751         1.941720         1.095096
 C         1.576306         2.034826         0.083777
 O         1.628424         2.469006        -1.233768
 C         1.027473         0.583217         0.480141
 C         0.941686        -0.801063        -0.120216
 H        -1.863238         1.655549         0.064143
 H        -1.250921         3.257638        -0.026683
 H        -0.710959         2.068687        -1.175616
 H         1.857068         0.468054         2.844571
 H         2.996221         2.798025         1.723967
 H         3.397321         1.247710         0.914181
 H         2.451766         1.999185        -1.554613
 H         0.103605        -1.435356         0.187544
 H         0.740757        -0.626229        -1.167007
 H         2.000201        -1.386906         0.068595
