19
Iteration:  4882
 C        -1.085117         2.179947        -0.048305
 C         0.194104         1.812810         0.654656
 O         0.432458         1.942487         2.110000
 C         1.602274         0.917076         1.885276
 C         2.681842         1.826105         1.132650
 C         1.627756         2.009821         0.008400
 O         1.866988         2.472805        -1.352950
 C         0.981390         0.573108         0.558871
 C         0.728860        -0.646427        -0.218766
 H        -1.887969         1.365356         0.103131
 H        -1.540978         3.116998         0.297757
 H        -1.022711         2.191672        -1.115620
 H         1.846383         0.443899         2.817051
 H         3.055293         2.841795         1.378138
 H         3.541553         1.248765         0.812700
 H         1.350239         3.280313        -1.558598
 H        -0.120389        -1.305001         0.273278
 H         0.299955        -0.303436        -1.225268
 H         1.621266        -1.225611        -0.580341
