19
Iteration:  4237
 C        -1.001427         2.404854        -0.053745
 C         0.184492         1.781722         0.568996
 O         0.381037         1.827251         2.144852
 C         1.571300         1.075722         1.857768
 C         2.601861         1.944062         1.171204
 C         1.718895         1.914158        -0.020833
 O         1.777270         2.444042        -1.303798
 C         1.055559         0.527302         0.348442
 C         0.700583        -0.817934        -0.131103
 H        -1.997916         1.990020         0.372909
 H        -1.239667         3.551614         0.035771
 H        -0.992395         2.178984        -1.155413
 H         2.032944         0.384066         2.652205
 H         2.825107         2.829164         1.830093
 H         3.481761         1.317520         0.958082
 H         2.337993         3.269336        -1.370695
 H         0.018630        -1.259771         0.593380
 H         0.127212        -0.733605        -1.028846
 H         1.595875        -1.462953        -0.253519
