19
Iteration:  3803
 C        -1.142024         2.248878         0.023637
 C         0.173007         1.876353         0.612992
 O         0.306401         1.950232         2.050999
 C         1.545165         0.996034         1.831402
 C         2.652151         1.929719         1.137683
 C         1.624387         1.892667        -0.057252
 O         1.860364         2.414312        -1.282684
 C         0.957939         0.587937         0.466704
 C         0.904531        -0.748721        -0.178177
 H        -1.846327         1.491868         0.509066
 H        -1.281374         3.276738         0.070761
 H        -1.020872         1.969513        -1.079017
 H         1.786721         0.384532         2.718620
 H         2.760994         2.885705         1.641955
 H         3.644611         1.541229         0.879788
 H         2.565361         3.105740        -1.130444
 H         0.313939        -1.428143         0.512155
 H         0.512038        -0.816557        -1.272932
 H         2.003733        -1.266184        -0.208416
