19
Iteration:   494
 C        -1.016265         2.365608        -0.168389
 C         0.177987         1.795754         0.584264
 O         0.348299         1.939564         2.121060
 C         1.545548         1.145847         1.924526
 C         2.590795         2.024126         1.130399
 C         1.577307         1.935274         0.027868
 O         1.685148         2.418705        -1.211898
 C         1.075383         0.477090         0.518900
 C         0.952804        -0.921931        -0.232428
 H        -1.953533         1.750701        -0.029448
 H        -1.132341         3.453077        -0.242667
 H        -0.849957         2.182257        -1.249247
 H         1.826232         0.572143         2.917343
 H         2.702090         2.928045         1.698175
 H         3.561899         1.540728         1.003835
 H         2.437342         1.919326        -1.624607
 H        -0.044825        -1.430379         0.012837
 H         0.891440        -0.707108        -1.277668
 H         1.871671        -1.428310        -0.184909
