19
Iteration:  4469charge 0 multiplicity 1
 C        -1.064273         2.291281         0.025642
 C         0.219390         1.880048         0.624449
 O         0.472832         1.976745         2.009865
 C         1.560234         1.044274         1.939662
 C         2.638983         1.807310         1.206936
 C         1.575465         1.914265        -0.032909
 O         1.854641         2.421959        -1.265268
 C         1.016398         0.601215         0.413699
 C         0.731484        -0.757675        -0.280368
 H        -1.727828         1.424841         0.284945
 H        -1.382436         3.337641         0.144599
 H        -0.800988         2.225836        -0.990767
 H         1.529431         0.526886         2.874276
 H         3.034811         2.673625         1.734633
 H         3.398108         1.108529         0.939453
 H         1.174968         3.055337        -1.577019
 H         0.259374        -1.478697         0.487920
 H         0.040822        -0.896056        -1.138762
 H         1.808143        -1.350143        -0.457684
