19
Iteration:  4533
 C        -1.067216         2.398136         0.078392
 C         0.232109         1.848437         0.699557
 O         0.328891         1.873209         2.134301
 C         1.555879         1.064095         1.877281
 C         2.651000         2.072795         1.178958
 C         1.574052         1.909658         0.043763
 O         1.858139         2.165800        -1.346849
 C         1.079199         0.572617         0.388840
 C         0.769494        -0.763423        -0.385551
 H        -1.961538         2.014171         0.585370
 H        -1.067793         3.492979         0.298395
 H        -1.412474         2.302656        -0.916784
 H         1.686140         0.163906         2.474354
 H         2.699975         3.076887         1.653599
 H         3.617679         1.712482         0.985586
 H         2.295831         2.980392        -1.560749
 H        -0.084846        -1.307048         0.141468
 H         0.772579        -0.523776        -1.414141
 H         1.625924        -1.407444        -0.436625
