19
Iteration:  4731
 C        -1.030305         2.227828         0.090502
 C         0.186003         1.834580         0.636366
 O         0.411854         2.019262         2.091214
 C         1.511599         1.045833         2.005368
 C         2.654973         1.848831         1.164946
 C         1.629975         1.938606         0.017774
 O         1.830749         2.318064        -1.357961
 C         1.001368         0.603176         0.424211
 C         0.829118        -0.732106        -0.396260
 H        -1.927248         1.560418         0.428616
 H        -1.389080         3.329368         0.355484
 H        -1.011504         2.348162        -1.007659
 H         1.735531         0.593737         2.955201
 H         2.982104         2.774724         1.745313
 H         3.423554         1.076721         0.905286
 H         1.282789         3.107261        -1.532005
 H        -0.062717        -1.396952        -0.171424
 H         0.675546        -0.342804        -1.419256
 H         1.720807        -1.282067        -0.323607
