19
Iteration:  4052charge 0 multiplicity 1
 C        -0.976067         2.436738        -0.043694
 C         0.228562         1.839279         0.660472
 O         0.355962         1.914043         2.058233
 C         1.557783         0.987202         1.837892
 C         2.572750         1.864220         1.132153
 C         1.601805         1.870445         0.033913
 O         1.696257         2.512147        -1.302107
 C         1.058057         0.507385         0.417547
 C         0.804732        -0.781224        -0.125031
 H        -1.866367         1.775911         0.204623
 H        -1.086290         3.469502         0.159314
 H        -0.629831         2.089130        -1.037067
 H         1.840663         0.276319         2.603761
 H         2.744248         2.792250         1.743430
 H         3.495024         1.320390         0.774142
 H         2.681082         2.625059        -1.427413
 H         0.254927        -1.531404         0.530103
 H         0.400877        -0.660183        -1.176033
 H         1.844268        -1.290110        -0.448605
