19
Iteration:  3965charge 0 multiplicity 1
 C        -1.179784         2.217185         0.077191
 C         0.189538         1.870317         0.575335
 O         0.362620         1.924819         2.029999
 C         1.634596         1.015775         1.832272
 C         2.592063         1.968628         1.161136
 C         1.604346         1.894888         0.015689
 O         2.040752         2.339104        -1.230112
 C         1.043872         0.646473         0.488537
 C         0.731498        -0.726002        -0.272440
 H        -2.039888         1.614019         0.526903
 H        -1.435919         3.230409         0.049846
 H        -1.304652         1.984257        -1.034343
 H         2.041802         0.366048         2.603603
 H         2.775501         2.971295         1.545823
 H         3.544278         1.493424         0.826713
 H         1.341945         2.998658        -1.415289
 H        -0.077229        -1.214985         0.346314
 H         0.400420        -0.489880        -1.337151
 H         1.616832        -1.455615        -0.457387
