19
Iteration:  2544
 C        -1.047914         2.098836        -0.132648
 C         0.182181         1.808716         0.614630
 O         0.396132         1.984289         2.015121
 C         1.537525         1.082676         1.856033
 C         2.640926         2.004454         1.244848
 C         1.600331         1.841926         0.034828
 O         1.674014         2.401670        -1.180664
 C         1.078030         0.565324         0.526955
 C         0.868702        -0.640332        -0.280225
 H        -1.876172         1.456777         0.231104
 H        -1.364642         3.118155         0.012056
 H        -1.043597         1.995903        -1.294411
 H         1.792476         0.510584         2.906479
 H         2.882054         3.043393         1.642195
 H         3.600140         1.486655         1.123727
 H         2.558821         2.414101        -1.638299
 H         0.067207        -1.354257        -0.076406
 H         0.850014        -0.216544        -1.316069
 H         1.782845        -1.396840        -0.325627
