19
Iteration:  4379charge 0 multiplicity 1
 C        -1.044413         2.372370         0.042779
 C         0.213891         1.896899         0.682437
 O         0.379127         1.811843         2.050105
 C         1.543123         1.041724         1.933265
 C         2.641464         1.981057         1.183461
 C         1.674731         1.937356        -0.052046
 O         1.818278         2.255139        -1.331013
 C         1.038978         0.594620         0.375447
 C         0.730689        -0.775442        -0.272269
 H        -1.943305         2.020269         0.514823
 H        -1.271189         3.468581         0.178502
 H        -1.039649         2.140674        -0.999299
 H         1.697707         0.369151         2.861318
 H         2.818487         2.983478         1.572286
 H         3.595336         1.526384         1.035124
 H         2.000411         3.225468        -1.481773
 H        -0.110838        -1.163389         0.390299
 H         0.460196        -0.599473        -1.317271
 H         1.752637        -1.269677         0.000541
