19
Iteration:  2666
 C        -1.208739         2.404011        -0.114318
 C         0.126856         1.852668         0.661578
 O         0.330542         1.808403         2.081850
 C         1.522583         0.987478         1.850638
 C         2.579660         2.064250         1.175749
 C         1.625681         1.929300         0.000661
 O         1.787623         2.377521        -1.295293
 C         1.081067         0.548643         0.412609
 C         1.019616        -0.826377        -0.119329
 H        -2.010359         1.749344        -0.101571
 H        -1.437292         3.443460         0.195150
 H        -0.956599         2.607237        -1.133825
 H         1.882088         0.479101         2.680303
 H         2.853040         3.023156         1.672563
 H         3.533305         1.587873         0.988947
 H         2.742232         2.541843        -1.363099
 H         0.577817        -1.550708         0.564381
 H         0.596067        -0.882170        -1.165838
 H         2.053786        -1.129801        -0.349672
