19
Iteration:  2706charge 0 multiplicity 1
 C        -0.990436         2.254394        -0.097306
 C         0.194153         1.797545         0.566505
 O         0.323343         1.954284         1.998079
 C         1.503791         1.079320         2.007385
 C         2.566521         1.932982         1.171676
 C         1.637419         1.842463         0.021213
 O         1.645647         2.460163        -1.261040
 C         1.031099         0.546519         0.605727
 C         1.042329        -0.692739        -0.280565
 H        -1.841790         1.516166         0.083861
 H        -1.307478         3.165799         0.364155
 H        -0.798548         2.350406        -1.239664
 H         1.484934         0.312248         2.902341
 H         2.830627         2.984884         1.586972
 H         3.493201         1.298192         0.983811
 H         2.204760         1.977299        -1.899573
 H         0.439709        -1.578774        -0.059267
 H         0.734053        -0.211786        -1.147343
 H         2.124688        -1.195385        -0.315819
