19
Iteration:  1041charge 0 multiplicity 1
 C        -1.073173         2.194077        -0.110696
 C         0.189274         1.797903         0.562629
 O         0.379464         1.990440         1.995156
 C         1.532077         1.048758         1.873931
 C         2.616019         1.986889         1.197956
 C         1.605433         1.880834         0.032548
 O         1.782434         2.478256        -1.201047
 C         1.017516         0.536076         0.535738
 C         0.893581        -0.756131        -0.175029
 H        -1.890575         1.625956         0.251821
 H        -1.335906         3.246320        -0.038200
 H        -1.104302         1.934120        -1.216099
 H         1.793419         0.553150         2.782066
 H         2.847541         2.997073         1.592789
 H         3.467328         1.390968         0.923531
 H         2.339345         1.989819        -1.801609
 H         0.125402        -1.456957         0.092849
 H         0.608973        -0.448978        -1.083366
 H         1.883496        -1.214658        -0.226004
