19
Iteration:   794
 C        -1.086610         2.137721        -0.130925
 C         0.177347         1.806453         0.616939
 O         0.361982         2.025892         2.041701
 C         1.557939         1.100607         1.948187
 C         2.650818         1.918738         1.259622
 C         1.646546         1.999256         0.015155
 O         1.722404         2.390356        -1.298212
 C         0.990346         0.534337         0.546403
 C         0.929675        -0.737813        -0.256998
 H        -1.883206         1.397593         0.030478
 H        -1.478238         3.155393        -0.014549
 H        -0.847839         2.228756        -1.227212
 H         1.682710         0.591662         2.819996
 H         2.733648         2.855364         1.749469
 H         3.636093         1.529458         1.278204
 H         2.473498         1.955607        -1.809048
 H         0.489606        -1.564999         0.329451
 H         0.354219        -0.478932        -1.228574
 H         1.787764        -1.065309        -0.815798
