19
Iteration:  2118
 C        -1.066956         2.124727        -0.159789
 C         0.240161         1.808664         0.634277
 O         0.359910         1.867175         2.069573
 C         1.634811         1.090152         1.876172
 C         2.555370         2.061389         1.236237
 C         1.615400         2.009840        -0.014846
 O         1.762107         2.356424        -1.289101
 C         1.191682         0.550062         0.468411
 C         0.714351        -0.726513        -0.164845
 H        -2.022338         1.551578         0.098450
 H        -1.189356         3.216697        -0.082210
 H        -0.813287         1.984352        -1.231105
 H         1.827927         0.518746         2.861991
 H         2.486764         3.136366         1.713385
 H         3.626917         1.749882         1.078928
 H         2.705438         2.652632        -1.367653
 H        -0.051629        -1.211579         0.512805
 H         0.079864        -0.405485        -1.163636
 H         1.477102        -1.425557        -0.432695
