19
Iteration:    23
 C        -0.984233         2.392798        -0.019174
 C         0.237267         1.792960         0.580389
 O         0.277513         1.772313         2.031993
 C         1.573361         1.106705         1.895127
 C         2.503114         2.193072         1.284557
 C         1.642587         1.953250         0.015604
 O         1.779270         2.220373        -1.350349
 C         1.128757         0.600078         0.438554
 C         0.842959        -0.763497        -0.210980
 H        -1.865794         1.942112         0.432111
 H        -0.980417         3.462301         0.194824
 H        -0.958556         2.216546        -1.105774
 H         1.888551         0.547906         2.757989
 H         2.436439         3.181685         1.733796
 H         3.539417         1.907283         1.152586
 H         2.112731         1.377650        -1.769469
 H         0.282061        -1.415787         0.451683
 H         0.260069        -0.702839        -1.132596
 H         1.745426        -1.338439        -0.450557
