19
Iteration:   269
 C        -1.155305         2.272708        -0.033770
 C         0.129408         1.848229         0.575447
 O         0.365064         1.956131         1.985992
 C         1.460897         1.165486         1.881128
 C         2.641071         1.893362         1.228163
 C         1.611022         1.874383        -0.050744
 O         1.779324         2.378269        -1.270197
 C         1.045729         0.602051         0.427209
 C         1.029274        -0.731917        -0.117645
 H        -1.943261         1.576996         0.433597
 H        -1.231349         3.390709         0.248192
 H        -1.233010         2.213723        -1.115589
 H         1.623892         0.396698         2.691410
 H         2.987907         2.728879         1.750972
 H         3.376416         1.146349         1.050241
 H         2.576691         2.018944        -1.719068
 H         0.382152        -1.526355         0.596830
 H         0.653834        -0.826959        -1.195241
 H         2.041414        -1.181403        -0.133625
