19
Iteration:  4808charge 0 multiplicity 1
 C        -1.066578         2.562869         0.112392
 C         0.164245         1.836482         0.592625
 O         0.343582         1.757758         2.050962
 C         1.554625         1.014545         1.847101
 C         2.599006         2.043747         1.077695
 C         1.685830         1.809265        -0.010078
 O         1.758557         2.285790        -1.255689
 C         1.029170         0.574146         0.439931
 C         0.933876        -0.783170        -0.278123
 H        -2.032886         2.356431         0.643102
 H        -1.125138         3.644184         0.342512
 H        -1.221028         2.338509        -0.922284
 H         1.785613         0.332784         2.689116
 H         2.670542         3.051514         1.561258
 H         3.626950         1.573037         1.074224
 H         1.976208         3.200748        -1.372294
 H         0.313280        -1.380675         0.471514
 H         0.406049        -0.908527        -1.250364
 H         1.860399        -1.245394        -0.362445
