19
Iteration:  2879
 C        -1.017645         2.372738        -0.113671
 C         0.209897         1.748397         0.626016
 O         0.308783         1.829374         2.088628
 C         1.527555         1.088348         1.885932
 C         2.547189         2.078292         1.254017
 C         1.633341         1.887547        -0.043651
 O         1.737018         2.439785        -1.302412
 C         1.094309         0.518091         0.449571
 C         0.934747        -0.809499        -0.213850
 H        -1.974076         1.817595         0.143441
 H        -1.251326         3.307393         0.385003
 H        -0.884380         2.523155        -1.243715
 H         1.778150         0.436112         2.760730
 H         2.698641         3.002382         1.832203
 H         3.567031         1.631893         1.319287
 H         2.455752         2.015339        -1.821864
 H         0.235816        -1.246266         0.563103
 H         0.331132        -0.739189        -1.247443
 H         1.849345        -1.293973        -0.421247
