19
Iteration:  2482charge 0 multiplicity 1
 C        -1.204503         2.399426         0.043741
 C         0.071807         1.760629         0.598126
 O         0.316891         1.678925         2.042931
 C         1.517088         1.024859         1.768696
 C         2.552957         2.107439         1.237618
 C         1.608320         2.040915        -0.033321
 O         1.955529         2.356378        -1.306821
 C         1.084317         0.703564         0.331069
 C         1.019925        -0.795351        -0.078482
 H        -1.991751         1.738669         0.297120
 H        -1.198622         3.434800         0.556217
 H        -1.087430         2.519570        -1.058933
 H         1.766738         0.298988         2.424067
 H         2.546354         3.044709         1.765493
 H         3.580614         1.771078         1.088435
 H         2.131780         1.592264        -1.922614
 H         0.478110        -1.253348         0.791626
 H         0.347079        -1.111636        -0.983366
 H         1.966319        -1.129351        -0.168253
