19
Iteration:    92
 C        -1.210413         2.263339        -0.064971
 C         0.191361         1.867017         0.596620
 O         0.406460         2.013886         1.981397
 C         1.514238         1.087031         1.910466
 C         2.593841         1.842029         1.221595
 C         1.638949         1.858637        -0.013789
 O         1.737518         2.413787        -1.310611
 C         1.046606         0.549151         0.490859
 C         1.005950        -0.714033        -0.133610
 H        -2.074596         1.624275         0.311591
 H        -1.478605         3.355390         0.192931
 H        -0.912758         2.181558        -1.183284
 H         1.547276         0.465044         2.787596
 H         2.908797         2.722016         1.736718
 H         3.431419         1.183542         1.098528
 H         2.639686         2.259345        -1.714960
 H         0.341105        -1.581190         0.340694
 H         0.693892        -0.576173        -1.164756
 H         1.925292        -1.137606        -0.243296
