19
Iteration:  1173
 C        -1.121367         2.157755        -0.021464
 C         0.142461         1.879621         0.636737
 O         0.311934         1.998040         2.056264
 C         1.510154         1.113937         1.902793
 C         2.655295         1.992614         1.215189
 C         1.591945         1.983462         0.008825
 O         1.897487         2.352094        -1.332690
 C         1.030489         0.597213         0.476754
 C         0.865779        -0.808003        -0.257870
 H        -1.752548         1.362090         0.214291
 H        -1.509850         3.046864         0.495790
 H        -1.025556         2.332438        -1.210981
 H         1.594616         0.370238         2.749736
 H         2.984748         2.874072         1.741205
 H         3.529477         1.346442         1.007155
 H         2.653566         1.894830        -1.655993
 H         0.457740        -1.628182         0.313739
 H         0.415813        -0.721990        -1.302749
 H         1.895141        -1.097186        -0.477749
