19
Iteration:   665
 C        -1.014299         2.170003        -0.091213
 C         0.197198         1.821234         0.600095
 O         0.348849         1.988404         2.032452
 C         1.498025         1.079642         1.839905
 C         2.606700         1.961732         1.089636
 C         1.586064         1.900117         0.037883
 O         1.788735         2.497793        -1.187778
 C         0.980441         0.574832         0.442545
 C         0.935563        -0.812511        -0.127399
 H        -1.949252         1.732511         0.311497
 H        -1.321773         3.195254        -0.066269
 H        -0.927992         1.799287        -1.128078
 H         1.774978         0.505357         2.785711
 H         2.659349         3.038873         1.537258
 H         3.541975         1.326321         1.016380
 H         2.531447         2.029278        -1.547455
 H         0.178280        -1.319575         0.311920
 H         0.534307        -0.688948        -1.178188
 H         1.992532        -1.358495        -0.070698
