19
Iteration:  4010charge 0 multiplicity 1
 C        -0.960919         2.359538        -0.019827
 C         0.246655         1.893514         0.646461
 O         0.303726         1.790545         2.069900
 C         1.608969         1.006209         1.793893
 C         2.596492         2.005561         1.186690
 C         1.609058         1.867089        -0.092663
 O         1.861968         2.503763        -1.223940
 C         1.076153         0.582183         0.431000
 C         0.717437        -0.816690        -0.154384
 H        -1.885443         1.880232         0.517883
 H        -1.212121         3.367066        -0.032174
 H        -1.211664         1.982397        -0.993179
 H         1.804649         0.458970         2.758231
 H         2.656785         2.937906         1.733619
 H         3.576668         1.612274         0.998276
 H         1.692048         2.042047        -2.045696
 H         0.086436        -1.293149         0.647087
 H         0.262460        -0.577759        -1.156749
 H         1.556752        -1.515473        -0.472274
