19
Iteration:  4179charge 0 multiplicity 1
 C        -1.142165         2.299210         0.055464
 C         0.170944         1.806115         0.645749
 O         0.412728         1.975983         2.111199
 C         1.559250         1.022754         1.886577
 C         2.679075         1.925307         1.135216
 C         1.666943         1.852564         0.022337
 O         1.954010         2.377926        -1.288502
 C         0.990730         0.595742         0.416613
 C         0.686721        -0.733015        -0.290866
 H        -1.928940         1.660330         0.260372
 H        -1.292835         3.446451        -0.076963
 H        -0.828567         1.957289        -1.017136
 H         1.661282         0.312377         2.672300
 H         2.879400         2.835055         1.635876
 H         3.634664         1.409152         0.891413
 H         1.295896         2.993939        -1.588495
 H        -0.066007        -1.337678         0.345427
 H         0.507936        -0.509663        -1.425724
 H         1.636952        -1.284889        -0.325104
