19
Iteration:  3381charge 0 multiplicity 1
 C        -1.123908         2.199967         0.037667
 C         0.232430         1.840668         0.585185
 O         0.303853         2.006779         1.999505
 C         1.430614         1.113204         1.899985
 C         2.646291         1.843205         1.160088
 C         1.696569         1.888609         0.022088
 O         1.814995         2.403730        -1.247186
 C         0.983195         0.585552         0.425093
 C         0.983986        -0.666387        -0.235560
 H        -1.820666         1.567550         0.798995
 H        -1.155405         3.306344         0.241941
 H        -1.442627         1.908576        -0.982087
 H         1.533313         0.503816         2.800933
 H         2.891668         2.890145         1.439830
 H         3.366195         1.034321         1.018789
 H         2.287442         1.800988        -1.818652
 H         0.309071        -1.412600         0.216407
 H         0.703180        -0.395448        -1.238048
 H         1.930266        -1.050445        -0.268532
