19
Iteration:  3660
 C        -1.159786         2.406611        -0.057695
 C         0.126656         1.766625         0.511306
 O         0.405967         1.954122         1.955079
 C         1.520406         1.056961         1.888986
 C         2.654431         1.873241         1.264814
 C         1.607871         1.933226        -0.032450
 O         1.728449         2.531045        -1.247434
 C         0.993265         0.498690         0.422617
 C         0.987475        -0.897309        -0.061195
 H        -1.984770         1.694684         0.173912
 H        -1.126999         3.314084         0.415882
 H        -1.180121         2.842973        -1.130588
 H         1.762290         0.386046         2.684841
 H         2.995083         2.755432         1.797671
 H         3.481767         1.156816         0.990616
 H         2.581239         2.585819        -1.730091
 H         0.607506        -1.604909         0.606006
 H         0.579939        -0.953236        -1.071981
 H         2.055710        -1.222244        -0.316087
