19
Iteration:  2075
 C        -1.041255         2.369615        -0.027183
 C         0.190760         1.762332         0.579729
 O         0.253607         1.778178         2.021675
 C         1.577063         1.070986         1.867510
 C         2.498286         2.131089         1.197457
 C         1.617721         1.875466        -0.040768
 O         1.828387         2.409189        -1.351201
 C         1.186599         0.568665         0.418867
 C         0.850194        -0.793365        -0.041584
 H        -1.951076         1.697930         0.091676
 H        -1.279286         3.309484         0.441627
 H        -0.934173         2.616852        -1.119240
 H         2.083596         0.410160         2.667481
 H         2.478767         3.146799         1.757445
 H         3.518524         1.728184         1.009775
 H         2.775394         2.176573        -1.558990
 H         0.412956        -1.338440         0.830884
 H         0.072459        -0.817727        -0.941541
 H         1.650503        -1.379064        -0.379144
