19
Iteration:   455
 C        -1.000458         2.280480        -0.064243
 C         0.257981         1.850138         0.546918
 O         0.284955         1.815106         2.040173
 C         1.521121         1.032434         1.848015
 C         2.511761         2.110196         1.279717
 C         1.649856         1.980486         0.024300
 O         1.746462         2.301051        -1.318747
 C         1.195424         0.569980         0.444653
 C         0.819835        -0.717382        -0.121646
 H        -1.889680         1.929312         0.465158
 H        -1.044024         3.420260        -0.027538
 H        -1.036317         1.916585        -1.111783
 H         1.904268         0.462574         2.600160
 H         2.395467         3.177543         1.686481
 H         3.552241         1.734831         1.015763
 H         2.545576         1.861437        -1.666903
 H         0.194851        -1.366911         0.507371
 H         0.298578        -0.569711        -1.140138
 H         1.802105        -1.333173        -0.381306
