19
Iteration:   163charge 0 multiplicity 1
 C        -1.021856         2.243496        -0.071979
 C         0.182091         1.743812         0.602978
 O         0.324239         1.815809         2.042353
 C         1.578540         1.072268         1.840041
 C         2.549580         2.196646         1.217988
 C         1.672763         1.873786        -0.057551
 O         1.830852         2.455625        -1.315988
 C         1.139488         0.525567         0.474234
 C         0.704940        -0.784185        -0.056845
 H        -1.968374         1.866335         0.320897
 H        -1.102320         3.330905         0.050076
 H        -0.865926         2.091763        -1.108081
 H         2.106714         0.456935         2.641582
 H         2.393170         3.269537         1.625433
 H         3.684555         2.043129         1.241712
 H         2.443276         1.907597        -1.886138
 H        -0.187860        -1.128659         0.303821
 H         0.593584        -0.548227        -1.156266
 H         1.450226        -1.721731        -0.058749
