19
Iteration:   564charge 0 multiplicity 1
 C        -1.134895         2.284657         0.021390
 C         0.129413         1.784349         0.598396
 O         0.314397         1.850526         1.966856
 C         1.530089         1.088297         1.786007
 C         2.548458         2.023401         1.168614
 C         1.601597         2.002890         0.019543
 O         1.951816         2.364710        -1.276625
 C         1.043609         0.602294         0.443589
 C         0.916925        -0.772379        -0.085953
 H        -1.840510         1.530363         0.327468
 H        -1.330280         3.259708         0.492983
 H        -1.175496         2.422709        -1.072576
 H         1.711134         0.518238         2.603126
 H         2.595653         3.022536         1.739547
 H         3.585066         1.661339         0.888669
 H         2.657088         1.722403        -1.588966
 H         0.230045        -1.231235         0.445810
 H         0.501314        -0.772995        -1.136675
 H         1.879039        -1.366931        -0.183926
