19
Iteration:   752charge 0 multiplicity 1
 C        -1.039942         2.292632        -0.122677
 C         0.180725         1.748036         0.666752
 O         0.283877         1.912519         2.060406
 C         1.570584         1.112369         1.912992
 C         2.586569         2.069175         1.231668
 C         1.604873         1.952784         0.038824
 O         1.738898         2.431220        -1.344936
 C         1.106913         0.535244         0.472105
 C         0.870770        -0.853046        -0.189320
 H        -1.904061         1.584403        -0.045393
 H        -1.348737         3.295218         0.138297
 H        -0.598386         2.288852        -1.120669
 H         1.909864         0.708571         2.797992
 H         2.895280         2.979811         1.827912
 H         3.524653         1.568693         0.918902
 H         2.477450         1.819062        -1.586897
 H         0.129535        -1.488297         0.284002
 H         0.729100        -0.768600        -1.358565
 H         1.939572        -1.398715        -0.440942
