19
Iteration:  2788
 C        -1.148588         2.156312         0.053683
 C         0.217236         1.791205         0.533284
 O         0.271805         1.848085         1.978893
 C         1.505687         1.073793         1.871195
 C         2.592699         2.157386         1.178280
 C         1.676433         1.970679         0.036591
 O         1.931046         2.467205        -1.281511
 C         1.168487         0.571940         0.434916
 C         0.768247        -0.867308        -0.229030
 H        -1.889699         1.746940         0.723587
 H        -1.309314         3.271697         0.201288
 H        -1.263180         1.858416        -0.939812
 H         1.659570         0.610144         2.880824
 H         2.645168         3.040941         1.884925
 H         3.535852         1.577918         1.178769
 H         2.876998         2.562915        -1.268936
 H        -0.088351        -1.277210         0.366057
 H         0.369997        -0.773953        -1.342687
 H         1.553908        -1.539244        -0.416187
