19
Iteration:  2888
 C        -1.039080         2.373099        -0.026877
 C         0.200080         1.801015         0.592279
 O         0.317421         1.812173         2.041119
 C         1.555464         1.120856         1.893374
 C         2.515939         2.119216         1.240976
 C         1.673431         1.902690         0.042000
 O         1.773755         2.358214        -1.268489
 C         1.050284         0.570340         0.429247
 C         0.895510        -0.875729        -0.272521
 H        -1.941729         1.743397         0.164887
 H        -1.108018         3.357770         0.441343
 H        -0.876669         2.533218        -1.137713
 H         1.793045         0.545237         2.906732
 H         2.364715         3.212647         1.575344
 H         3.561909         1.720091         1.006883
 H         2.630261         2.172464        -1.708094
 H         0.304025        -1.664818         0.321191
 H         0.425881        -0.798257        -1.380059
 H         1.859046        -1.319642        -0.350166
