19
Iteration:   975
 C        -1.084681         2.252825         0.093497
 C         0.217680         1.792764         0.540225
 O         0.292811         1.871653         1.992787
 C         1.515618         1.130962         1.910233
 C         2.540425         2.156339         1.218683
 C         1.608065         1.926388        -0.007265
 O         1.901736         2.306700        -1.301831
 C         1.016588         0.561074         0.427104
 C         0.869499        -0.746386        -0.239888
 H        -1.765702         1.518546         0.444861
 H        -1.215662         3.237239         0.498316
 H        -1.109699         2.297551        -1.003485
 H         1.755230         0.432119         2.718657
 H         2.699902         3.083308         1.816108
 H         3.448527         1.624273         0.977023
 H         2.729397         1.785093        -1.458436
 H         0.417467        -1.575520         0.336399
 H         0.393136        -0.696827        -1.163270
 H         2.026090        -1.074614        -0.555039
