19
Iteration:  4874
 C        -1.133136         2.218753        -0.092972
 C         0.221312         1.845793         0.628683
 O         0.394071         1.880906         2.106367
 C         1.687341         0.941146         1.884374
 C         2.695658         1.891761         1.070292
 C         1.643914         1.986531         0.000194
 O         1.869512         2.436837        -1.336921
 C         0.907699         0.556096         0.576974
 C         0.740919        -0.637868        -0.227694
 H        -1.934442         1.619753         0.299161
 H        -1.554860         3.137184         0.322227
 H        -0.954801         2.290714        -1.146737
 H         2.003646         0.179349         2.682391
 H         2.943903         2.753871         1.724273
 H         3.595056         1.224412         1.001605
 H         1.325891         3.269429        -1.296196
 H         0.067512        -1.404683         0.422625
 H         0.153782        -0.308228        -1.148520
 H         1.677773        -1.104994        -0.271341
