19
Iteration:  2252
 C        -0.940798         2.414795        -0.033849
 C         0.199072         1.727746         0.598951
 O         0.326028         1.922640         2.013790
 C         1.480645         1.044924         1.932785
 C         2.524012         2.134352         1.183122
 C         1.609314         1.869316         0.014265
 O         1.595598         2.294535        -1.260402
 C         1.133846         0.486211         0.495177
 C         1.048984        -0.817833        -0.246842
 H        -1.897700         2.005276        -0.100512
 H        -1.052890         3.359964         0.428569
 H        -0.710192         2.685092        -1.132916
 H         1.657007         0.686869         2.920182
 H         2.484613         3.102849         1.783858
 H         3.593748         1.828222         1.056715
 H         2.509817         2.297426        -1.648122
 H         0.509842        -1.684818         0.166316
 H         0.273896        -0.588149        -1.091238
 H         1.911348        -1.122341        -0.774878
