19
Iteration:  2495
 C        -1.159695         2.364763         0.076087
 C         0.127980         1.767308         0.597337
 O         0.226051         1.712396         2.045537
 C         1.573349         1.010938         1.795651
 C         2.500475         2.151433         1.159854
 C         1.680205         1.915577        -0.005592
 O         1.956765         2.376053        -1.310598
 C         1.089351         0.619413         0.359980
 C         0.989039        -0.699145        -0.107481
 H        -2.053528         1.801479         0.354578
 H        -1.368482         3.391547         0.556331
 H        -1.277309         2.521740        -0.927999
 H         1.832578         0.406693         2.551734
 H         2.470420         3.155621         1.627897
 H         3.593896         1.839098         1.044123
 H         2.195035         1.559053        -1.734940
 H         0.382963        -1.309166         0.589414
 H         0.519042        -0.630447        -1.098459
 H         1.870034        -1.348492        -0.254268
