19
Iteration:  2657
 C        -1.155264         2.408857        -0.031716
 C         0.130427         1.832973         0.548790
 O         0.290533         1.749664         2.063838
 C         1.579161         0.994255         1.791248
 C         2.527869         2.067096         1.167353
 C         1.617660         1.927387        -0.004759
 O         1.846078         2.402059        -1.310280
 C         1.076561         0.555956         0.463896
 C         1.006036        -0.792632        -0.083982
 H        -2.016836         1.748116         0.087444
 H        -1.431116         3.470594         0.382198
 H        -0.914895         2.434380        -1.061542
 H         1.802537         0.615203         2.708173
 H         2.547705         3.027485         1.553731
 H         3.463384         1.601144         1.038842
 H         2.796054         2.562593        -1.395798
 H         0.584764        -1.488468         0.694032
 H         0.357165        -0.782316        -1.093309
 H         1.926828        -1.180705        -0.202918
