19
Iteration:  2381
 C        -1.084989         2.123818        -0.101293
 C         0.185626         1.852636         0.643459
 O         0.294476         1.742593         2.135163
 C         1.630382         1.069924         1.815963
 C         2.606610         2.113794         1.228245
 C         1.653362         1.967121         0.018940
 O         1.806904         2.368758        -1.320514
 C         1.082110         0.636462         0.417792
 C         0.760497        -0.627014        -0.193962
 H        -2.043811         1.606823         0.298310
 H        -1.292504         3.188277        -0.295585
 H        -0.796950         1.581977        -1.153446
 H         2.078450         0.320033         2.701154
 H         2.597300         3.080990         1.792146
 H         3.642539         1.890560         0.989668
 H         2.763291         2.320243        -1.361787
 H        -0.112284        -1.108089         0.310010
 H         0.737301        -0.580565        -1.382445
 H         1.492011        -1.353578         0.101533
