19
Iteration:  3944
 C        -1.092626         2.155556         0.070839
 C         0.227305         1.824920         0.671895
 O         0.415204         1.945716         2.085932
 C         1.483282         1.081917         1.880873
 C         2.611341         1.928227         1.180922
 C         1.587900         1.927370        -0.011891
 O         1.947614         2.336181        -1.379425
 C         0.957400         0.649383         0.451826
 C         0.792045        -0.714627        -0.296410
 H        -1.877057         1.451567         0.556947
 H        -1.348846         3.156516         0.186009
 H        -1.134352         2.092324        -1.044711
 H         1.611442         0.445780         2.777276
 H         2.840851         2.861448         1.673824
 H         3.521554         1.348091         1.021141
 H         2.219094         3.298598        -1.291151
 H        -0.025615        -1.328224         0.131320
 H         0.561966        -0.464927        -1.357607
 H         1.727427        -1.237518        -0.353865
