19
Iteration:   174
 C        -0.950734         2.250883        -0.049522
 C         0.306700         1.786348         0.610242
 O         0.283075         1.792569         2.048075
 C         1.582041         1.113075         1.864659
 C         2.488861         2.192190         1.242914
 C         1.649241         1.907375        -0.001644
 O         1.777738         2.402036        -1.357556
 C         1.201004         0.538647         0.399898
 C         0.704717        -0.768257        -0.114460
 H        -1.798036         1.710908         0.375457
 H        -1.015749         3.336348         0.071759
 H        -0.958592         1.978674        -1.081251
 H         1.711467         0.457177         2.780587
 H         2.285640         3.235457         1.698653
 H         3.565150         1.846643         1.110904
 H         2.482087         1.837922        -1.796991
 H        -0.091604        -0.978438         0.502075
 H         0.253420        -0.760204        -1.128915
 H         1.509126        -1.651344        -0.027385
