19
Iteration:  1109charge 0 multiplicity 1
 C        -1.069801         2.310216        -0.129373
 C         0.151843         1.747769         0.673847
 O         0.349975         1.809958         2.089369
 C         1.607956         1.132377         1.858030
 C         2.520583         2.106617         1.269813
 C         1.641546         1.933648        -0.038529
 O         1.835795         2.466820        -1.333310
 C         1.100585         0.553436         0.378773
 C         0.803497        -0.865213        -0.136233
 H        -2.043088         2.045533         0.204328
 H        -1.024803         3.385844         0.075948
 H        -1.089141         2.061611        -1.227721
 H         1.812970         0.454658         2.725467
 H         2.610055         3.055643         1.792405
 H         3.516995         1.603567         1.091956
 H         2.600964         1.978147        -1.696929
 H         0.009704        -1.334223         0.392699
 H         0.465641        -0.921903        -1.072551
 H         1.788685        -1.411697         0.081719
