19
Iteration:  2185charge 0 multiplicity 1
 C        -1.164677         2.172495         0.014274
 C         0.127539         1.847576         0.613466
 O         0.379737         1.871522         1.947515
 C         1.523290         1.013709         1.803243
 C         2.598334         1.901772         1.212608
 C         1.629759         2.042801         0.033801
 O         1.858247         2.441808        -1.308687
 C         1.027708         0.658293         0.416791
 C         0.957778        -0.693392        -0.061852
 H        -1.973852         1.774004         0.670223
 H        -1.275772         3.231388        -0.052522
 H        -1.235207         1.715966        -1.039676
 H         1.683944         0.314361         2.729184
 H         2.726109         2.822972         1.944756
 H         3.561189         1.538928         0.794043
 H         2.188788         1.762870        -1.898661
 H        -0.009099        -1.220711         0.196597
 H         1.005540        -0.736649        -1.282338
 H         1.820509        -1.156927         0.307627
