19
Iteration:  1052
 C        -1.140133         2.178812        -0.207662
 C         0.173789         1.791566         0.641670
 O         0.425906         2.027941         2.054870
 C         1.534618         1.110458         1.967005
 C         2.569688         1.910166         1.210219
 C         1.684591         1.852584         0.001919
 O         1.690253         2.531677        -1.236399
 C         1.094173         0.547631         0.487427
 C         0.899945        -0.790272        -0.230402
 H        -2.003008         1.771765         0.218706
 H        -1.110744         3.249429        -0.063166
 H        -0.846841         2.000834        -1.306309
 H         1.558942         0.494796         2.829368
 H         2.943556         2.884236         1.583029
 H         3.431830         1.281071         1.100690
 H         2.403780         2.066081        -1.760135
 H         0.155615        -1.356902         0.290838
 H         0.750891        -0.692972        -1.198457
 H         1.748420        -1.482562        -0.244634
