19
Iteration:  3873
 C        -1.054239         2.496318        -0.057373
 C         0.164484         1.768066         0.668084
 O         0.364333         1.835168         2.223144
 C         1.524225         1.063114         1.913347
 C         2.512665         2.039902         1.158066
 C         1.572356         1.856990        -0.017595
 O         1.853321         2.426952        -1.364903
 C         1.081010         0.511286         0.431038
 C         0.947134        -0.867349        -0.255426
 H        -2.003793         1.973554         0.094969
 H        -0.980057         3.633111         0.227416
 H        -0.680730         2.611566        -1.054158
 H         1.859931         0.367361         2.700137
 H         2.476063         3.113674         1.567165
 H         3.582630         1.688499         1.128315
 H         1.280753         2.050506        -2.102238
 H         0.186064        -1.441045         0.373732
 H         0.521549        -0.709811        -1.287680
 H         2.001604        -1.535514        -0.471111
