19
Iteration:   605charge 0 multiplicity 1
 C        -0.981159         2.201568        -0.073849
 C         0.261175         1.808399         0.587548
 O         0.271866         1.876488         2.024762
 C         1.582449         1.129788         1.945623
 C         2.589999         2.205077         1.244200
 C         1.623444         1.887719         0.029205
 O         1.789201         2.357398        -1.262064
 C         1.041527         0.503855         0.432889
 C         0.796966        -0.752287        -0.265967
 H        -1.751769         1.507047         0.325420
 H        -1.129703         3.291035         0.149072
 H        -0.856076         2.137490        -1.133277
 H         1.906720         0.649186         2.873035
 H         2.714056         3.213174         1.507683
 H         3.549915         1.705386         1.289747
 H         2.446466         1.736769        -1.586652
 H         0.186264        -1.551717         0.429106
 H         0.099646        -0.489495        -1.092403
 H         1.576875        -1.378582        -0.777700
