19
Iteration:   745charge 0 multiplicity 1
 C        -1.063617         2.314638        -0.097243
 C         0.115276         1.780593         0.635023
 O         0.305485         1.865712         2.063117
 C         1.628339         1.055971         1.866097
 C         2.581040         2.148475         1.280201
 C         1.580534         1.947427        -0.032491
 O         1.787783         2.413016        -1.346521
 C         1.099333         0.514288         0.471939
 C         0.880869        -0.841743        -0.156238
 H        -1.970013         1.652930        -0.088055
 H        -1.331859         3.375169         0.067169
 H        -0.821833         2.375807        -1.161572
 H         1.825490         0.419228         2.893704
 H         2.919554         3.054266         1.925889
 H         3.488185         1.568422         0.929571
 H         2.539705         1.992615        -1.747267
 H         0.154183        -1.490820         0.308141
 H         0.715206        -0.629837        -1.181200
 H         1.816397        -1.441057        -0.036565
