19
Iteration:   611charge 0 multiplicity 1
 C        -0.988127         2.181399        -0.106971
 C         0.266470         1.771983         0.580647
 O         0.269840         1.895573         2.023704
 C         1.572135         1.139298         1.925484
 C         2.591742         2.171885         1.226872
 C         1.654976         1.912823         0.061974
 O         1.741024         2.329791        -1.232610
 C         1.101233         0.542193         0.463716
 C         0.776264        -0.719207        -0.255926
 H        -1.852190         1.570626         0.262183
 H        -1.052628         3.240792         0.131279
 H        -0.825400         2.067597        -1.211091
 H         1.800438         0.362102         2.827709
 H         2.838360         3.235546         1.640586
 H         3.546114         1.591937         1.089404
 H         2.451212         1.859397        -1.685322
 H         0.215534        -1.379964         0.375573
 H         0.083915        -0.605695        -1.096938
 H         1.615485        -1.180476        -0.754179
