19
Iteration:  4359charge 0 multiplicity 1
 C        -1.025308         2.326074         0.043231
 C         0.149931         1.812445         0.607885
 O         0.393591         1.988902         2.124543
 C         1.571412         1.015603         1.842903
 C         2.567399         1.909685         1.135176
 C         1.623177         1.906698        -0.023552
 O         1.872832         2.242279        -1.335197
 C         0.964384         0.572278         0.525839
 C         0.848422        -0.690151        -0.301391
 H        -1.992210         1.987918         0.479037
 H        -1.180414         3.338751         0.439155
 H        -1.065414         2.203928        -0.999020
 H         1.819212         0.482952         2.785006
 H         2.966462         2.783049         1.687462
 H         3.378988         1.263348         0.865331
 H         1.771489         3.219616        -1.334513
 H        -0.028906        -1.193796         0.046323
 H         0.634664        -0.280793        -1.267904
 H         1.740609        -1.374937        -0.310952
