19
Iteration:   585
 C        -1.136022         2.272411        -0.011583
 C         0.199287         1.747438         0.604298
 O         0.335410         1.896596         2.084760
 C         1.559529         1.103973         1.945603
 C         2.430099         2.137178         1.207554
 C         1.675877         1.880841        -0.063472
 O         1.950033         2.393678        -1.339022
 C         1.108097         0.523384         0.475731
 C         0.789416        -0.776553        -0.214159
 H        -1.918052         1.609457         0.210484
 H        -1.126579         3.326536         0.310060
 H        -0.905117         2.331772        -1.075341
 H         1.806853         0.541898         2.707937
 H         2.382084         3.119491         1.749936
 H         3.517944         1.870849         1.087155
 H         2.504985         1.828917        -1.863280
 H         0.236045        -1.508165         0.352469
 H         0.318213        -0.790992        -1.224737
 H         1.797650        -1.267189        -0.529586
