19
Iteration:  3840
 C        -1.007191         2.436126         0.098900
 C         0.206688         1.775287         0.548205
 O         0.238951         1.845605         1.991535
 C         1.550566         0.988641         1.804983
 C         2.565684         1.996215         1.166565
 C         1.557052         1.965056        -0.008158
 O         1.864285         2.342518        -1.294773
 C         1.097238         0.538492         0.384782
 C         0.972680        -0.791940        -0.100372
 H        -1.945832         2.045600         0.395289
 H        -1.043542         3.519815         0.526038
 H        -1.213496         2.426792        -0.936086
 H         1.668869         0.315933         2.675088
 H         2.620361         2.995528         1.751800
 H         3.553093         1.551236         0.933555
 H         1.323126         3.080903        -1.654592
 H         0.437520        -1.264519         0.743248
 H         0.372499        -0.791326        -1.054955
 H         1.963001        -1.424764        -0.292188
