19
Iteration:  1490
 C        -1.019543         2.328241        -0.133202
 C         0.244330         1.747349         0.563763
 O         0.389480         1.957314         1.999706
 C         1.495945         1.078623         1.877205
 C         2.601244         1.941864         1.252339
 C         1.682581         1.966039         0.021879
 O         1.666100         2.492180        -1.313222
 C         1.030224         0.538476         0.539860
 C         0.855427        -0.879838        -0.105761
 H        -1.881181         2.042300         0.348894
 H        -0.825742         3.379934        -0.171130
 H        -1.152121         2.021085        -1.271922
 H         1.602344         0.367827         2.772101
 H         2.874519         2.850262         1.737663
 H         3.443444         1.218256         1.109235
 H         2.546948         2.389615        -1.773836
 H         0.248475        -1.579804         0.498900
 H         0.463940        -0.873538        -1.217390
 H         1.797148        -1.279790        -0.226143
