19
Iteration:  2938charge 0 multiplicity 1
 C        -1.217949         2.289078         0.083037
 C         0.123195         1.868652         0.656062
 O         0.263376         1.865920         2.047906
 C         1.518855         1.104686         1.890747
 C         2.637754         2.003571         1.233080
 C         1.645142         1.929697        -0.007503
 O         1.920873         2.262333        -1.379415
 C         1.011309         0.631450         0.451062
 C         1.004606        -0.674602        -0.332274
 H        -1.869107         1.557719         0.552505
 H        -1.439482         3.371588         0.260346
 H        -1.305173         2.021884        -0.941865
 H         1.588060         0.593921         2.769878
 H         2.872819         2.887417         1.716552
 H         3.393627         1.292927         1.099647
 H         2.803566         1.946248        -1.572631
 H         0.216802        -1.298935         0.032470
 H         0.915777        -0.560469        -1.360419
 H         1.891985        -1.322079         0.034445
