19
Iteration:  4278charge 0 multiplicity 1
 C        -1.066879         2.441051         0.067225
 C         0.130581         1.791631         0.619931
 O         0.388680         1.873130         2.083287
 C         1.586301         1.052463         1.788443
 C         2.581585         1.980928         1.157909
 C         1.635353         1.877872        -0.033175
 O         1.857948         2.251780        -1.265389
 C         1.077495         0.601899         0.388256
 C         0.760614        -0.786257        -0.228075
 H        -1.902169         1.921627         0.328895
 H        -0.960905         3.488250         0.284658
 H        -1.025652         2.556600        -1.028173
 H         1.833498         0.376552         2.589839
 H         2.606716         2.973464         1.520354
 H         3.578791         1.509286         1.170469
 H         2.014709         3.196403        -1.136382
 H         0.120548        -1.333163         0.567977
 H         0.236350        -0.662622        -1.251486
 H         1.789672        -1.183951        -0.280365
