19
Iteration:   358charge 0 multiplicity 1
 C        -1.029951         2.213720        -0.123779
 C         0.248003         1.885663         0.635355
 O         0.339384         1.911749         1.998427
 C         1.557284         1.032448         1.913290
 C         2.562615         1.983970         1.201528
 C         1.628131         1.939111         0.007601
 O         1.695523         2.392521        -1.311807
 C         1.122377         0.579618         0.500076
 C         0.871855        -0.732697        -0.118872
 H        -1.801062         1.512757         0.055655
 H        -1.227537         3.246707         0.174353
 H        -0.803522         2.190396        -1.187603
 H         1.632592         0.546267         2.847991
 H         2.602531         2.885355         1.662152
 H         3.459895         1.499596         1.049381
 H         2.535159         2.054162        -1.715259
 H        -0.095721        -1.286592         0.336241
 H         0.577501        -0.648139        -1.220955
 H         1.730707        -1.316913        -0.187217
