19
Iteration:   298
 C        -1.001377         2.332287        -0.038007
 C         0.223355         1.839870         0.574910
 O         0.320658         1.819816         2.068398
 C         1.517725         1.078749         1.861730
 C         2.498772         2.098050         1.187228
 C         1.546212         1.931544        -0.041749
 O         1.810575         2.340572        -1.351070
 C         1.096360         0.560020         0.468749
 C         0.912825        -0.819117        -0.117605
 H        -1.927050         2.073841         0.467026
 H        -1.064093         3.404905         0.285033
 H        -1.100794         2.449156        -1.121380
 H         1.789026         0.373627         2.678198
 H         2.412657         3.103318         1.809744
 H         3.606789         1.817526         1.174979
 H         2.514361         1.778486        -1.786366
 H         0.154016        -1.367461         0.267057
 H         0.835512        -0.650412        -1.160099
 H         1.844436        -1.440306         0.142374
