19
Iteration:  1189charge 0 multiplicity 1
 C        -1.091385         2.151024        -0.101162
 C         0.275375         1.902419         0.628452
 O         0.365835         1.996995         2.103437
 C         1.520299         1.077400         1.885925
 C         2.497091         1.918821         1.142834
 C         1.625797         1.906566         0.031303
 O         1.812340         2.349999        -1.260477
 C         0.966116         0.589568         0.494310
 C         0.936616        -0.665057        -0.226483
 H        -1.752717         1.196492        -0.045574
 H        -1.731811         3.041565         0.098305
 H        -0.920499         2.390763        -1.122237
 H         1.879450         0.623362         2.800264
 H         2.846813         2.910709         1.533892
 H         3.384056         1.315435         0.792874
 H         2.599586         1.833430        -1.504355
 H         0.372785        -1.342121         0.461784
 H         0.497315        -0.486224        -1.206025
 H         1.906929        -1.226666        -0.569000
