19
Iteration:  2821
 C        -1.095404         2.138466        -0.148595
 C         0.189902         1.797125         0.648455
 O         0.385470         1.928083         2.031190
 C         1.535095         1.025162         1.889778
 C         2.586480         1.963123         1.165657
 C         1.639893         1.896670        -0.084053
 O         1.826741         2.654681        -1.218067
 C         1.022011         0.529324         0.467952
 C         0.847021        -0.795686        -0.108685
 H        -2.008193         1.576962         0.041934
 H        -1.259498         3.247998        -0.105470
 H        -0.965458         2.016024        -1.216476
 H         1.594314         0.352126         2.844425
 H         2.685419         2.929788         1.802569
 H         3.560493         1.410690         1.036611
 H         2.732064         2.489743        -1.563856
 H         0.276215        -1.547808         0.489183
 H         0.243251        -0.715398        -1.113149
 H         1.741544        -1.354560        -0.208255
