19
Iteration:  3318charge 0 multiplicity 1
 C        -0.994613         2.197172        -0.011884
 C         0.233900         1.820585         0.670907
 O         0.219834         1.786015         2.088486
 C         1.627240         1.141648         1.882944
 C         2.565859         2.139336         1.183118
 C         1.698411         1.944792         0.008830
 O         1.849671         2.315413        -1.318954
 C         1.122193         0.595492         0.392384
 C         0.686902        -0.688117        -0.223038
 H        -1.863261         1.529096         0.177336
 H        -1.357701         3.183778         0.263948
 H        -0.867146         2.081290        -1.073453
 H         1.966426         0.485898         2.738070
 H         2.626526         3.187780         1.492603
 H         3.557652         1.683651         1.051396
 H         2.702651         1.868116        -1.403830
 H        -0.275101        -1.023147         0.059242
 H         0.333423        -0.524498        -1.296019
 H         1.481230        -1.536616        -0.176781
