19
Iteration:  3540
 C        -1.163096         2.013156         0.006830
 C         0.233593         1.820014         0.559338
 O         0.357055         2.022441         1.986450
 C         1.551088         1.085843         1.906001
 C         2.639666         1.957270         1.153317
 C         1.676015         1.923384         0.001672
 O         1.869760         2.413358        -1.247999
 C         1.013204         0.589113         0.523063
 C         0.770258        -0.648791        -0.256724
 H        -1.824974         1.292437         0.633051
 H        -1.456167         3.143014         0.321861
 H        -1.542160         2.056760        -1.095844
 H         1.646715         0.520169         2.790432
 H         2.951424         2.838157         1.745482
 H         3.559230         1.303635         0.923354
 H         2.807382         2.214088        -1.302918
 H        -0.097832        -1.158245        -0.017707
 H         0.760112        -0.282043        -1.274485
 H         1.615524        -1.403654        -0.280995
