19
Iteration:  4017
 C        -1.020049         2.408840        -0.052396
 C         0.207511         1.858829         0.604315
 O         0.358359         1.781458         2.066920
 C         1.603856         0.991240         1.821188
 C         2.614060         1.992629         1.176486
 C         1.614024         1.898549        -0.017752
 O         1.822413         2.526718        -1.216278
 C         1.101788         0.593225         0.442446
 C         0.705367        -0.852213        -0.153464
 H        -1.823629         1.912535         0.448492
 H        -1.250222         3.518924        -0.212859
 H        -1.045458         2.070735        -1.169501
 H         1.931278         0.502652         2.697550
 H         2.726899         2.971034         1.730770
 H         3.667049         1.609001         0.905069
 H         1.852975         1.859802        -1.943820
 H         0.032732        -1.511477         0.450678
 H         0.092686        -0.736105        -1.055110
 H         1.704694        -1.447601        -0.323894
