19
Iteration:  3368charge 0 multiplicity 1
 C        -1.114165         2.148864         0.104819
 C         0.190650         1.904637         0.575677
 O         0.306985         2.055604         2.053608
 C         1.438064         1.114005         1.871258
 C         2.649014         1.931537         1.192446
 C         1.671803         1.865418        -0.005424
 O         1.887807         2.382892        -1.242639
 C         1.003375         0.602179         0.471912
 C         0.931657        -0.734257        -0.346526
 H        -1.931745         1.564127         0.644054
 H        -1.542556         3.165758         0.102643
 H        -1.051957         1.779903        -0.929704
 H         1.576004         0.411167         2.618370
 H         3.044653         2.846804         1.732823
 H         3.576333         1.362616         0.963813
 H         2.073163         1.612316        -1.858495
 H         0.054643        -1.458945        -0.030666
 H         0.671177        -0.665076        -1.395783
 H         1.865951        -1.238137        -0.206363
