19
Iteration:  4047
 C        -0.945633         2.389693        -0.064201
 C         0.143277         1.800078         0.659593
 O         0.384319         1.914934         2.065793
 C         1.566798         0.980158         1.811030
 C         2.596521         1.879398         1.172604
 C         1.560263         1.914665         0.008907
 O         1.716599         2.524031        -1.302341
 C         1.064878         0.529421         0.421217
 C         0.806390        -0.793987        -0.132187
 H        -1.817994         1.900005         0.319125
 H        -0.932050         3.507178         0.218947
 H        -0.609075         2.181878        -1.104116
 H         1.838530         0.310102         2.647134
 H         2.793029         2.728133         1.825343
 H         3.468046         1.339814         0.797999
 H         2.645135         2.485162        -1.517932
 H         0.214585        -1.484472         0.417960
 H         0.238788        -0.766871        -1.047778
 H         1.723493        -1.243491        -0.314275
