19
Iteration:   782
 C        -1.039657         2.172678        -0.156316
 C         0.233723         1.806687         0.599911
 O         0.340384         1.998462         1.989612
 C         1.511174         1.068952         1.918256
 C         2.602743         1.985020         1.217792
 C         1.687865         1.799515         0.044844
 O         1.671576         2.431842        -1.255607
 C         1.046908         0.559216         0.594538
 C         0.927909        -0.654407        -0.217034
 H        -1.779184         1.409384         0.007312
 H        -1.459470         3.118773         0.236371
 H        -0.756179         2.110911        -1.257076
 H         1.775146         0.546734         2.772920
 H         2.782202         2.923005         1.652927
 H         3.464644         1.419633         0.972286
 H         2.257135         1.930600        -1.803244
 H         0.438461        -1.600733         0.120557
 H         0.228913        -0.348420        -1.054648
 H         1.899751        -0.870607        -0.427445
