19
Iteration:  3439charge 0 multiplicity 1
 C        -0.854091         2.475870        -0.049808
 C         0.202111         1.768298         0.612496
 O         0.316533         1.742003         2.052129
 C         1.580815         1.073436         1.859376
 C         2.471401         2.081362         1.192822
 C         1.585151         1.828284        -0.051919
 O         1.681842         2.433546        -1.317276
 C         1.035813         0.543701         0.461346
 C         0.911115        -0.854630        -0.097284
 H        -1.996251         2.213325         0.175346
 H        -0.875036         3.570048         0.271159
 H        -0.737209         2.334510        -1.196220
 H         1.839050         0.520659         2.852318
 H         2.490759         3.151569         1.431155
 H         3.576483         1.953915         1.121601
 H         2.645558         2.348237        -1.583331
 H         0.420783        -1.564535         0.442119
 H         0.255833        -0.774269        -0.998752
 H         1.904087        -1.199268        -0.415616
