19
Iteration:  1009
 C        -1.187741         2.250782         0.049306
 C         0.157712         1.817343         0.626888
 O         0.317999         1.872784         2.100708
 C         1.472820         1.079513         1.890789
 C         2.504565         2.101533         1.254818
 C         1.617190         1.941990        -0.048405
 O         1.974129         2.316051        -1.379614
 C         1.125052         0.617890         0.367335
 C         0.888817        -0.746388        -0.209087
 H        -1.956081         1.713207         0.461220
 H        -1.455260         3.270750         0.213050
 H        -1.155413         2.094550        -1.080702
 H         1.851295         0.429878         2.653544
 H         2.832477         3.042265         1.749136
 H         3.426921         1.533903         1.096522
 H         2.799630         1.797570        -1.642974
 H         0.335767        -1.430900         0.455510
 H         0.422562        -0.576792        -1.101209
 H         1.976431        -1.274967        -0.540914
