19
Iteration:  4064
 C        -0.994401         2.416577        -0.033929
 C         0.285494         1.929037         0.614987
 O         0.368150         1.860373         2.079146
 C         1.506343         0.985267         1.886512
 C         2.619114         1.898882         1.114582
 C         1.670759         1.842956        -0.062762
 O         1.689126         2.445138        -1.239282
 C         0.969621         0.557024         0.482293
 C         0.862174        -0.818049        -0.212675
 H        -1.932535         1.813618         0.280016
 H        -1.286729         3.421229         0.082420
 H        -1.002727         2.471146        -1.117686
 H         1.721807         0.401244         2.817524
 H         2.897456         2.947990         1.385816
 H         3.538926         1.289552         1.050687
 H         2.499733         2.917155        -1.383378
 H         0.164054        -1.467806         0.437862
 H         0.235991        -0.704594        -1.163690
 H         1.910562        -1.351531        -0.312000
