19
Iteration:  3116charge 0 multiplicity 1
 C        -1.008867         2.152112        -0.040964
 C         0.230756         1.862674         0.651980
 O         0.324312         2.051197         2.034609
 C         1.438713         1.030247         1.829623
 C         2.645167         1.935560         1.219763
 C         1.633736         1.850351         0.012353
 O         1.763938         2.425347        -1.260577
 C         1.017499         0.599029         0.460081
 C         0.891859        -0.696282        -0.235571
 H        -1.777637         1.448989         0.345149
 H        -1.469922         3.151105         0.239095
 H        -0.839270         2.142410        -1.190244
 H         1.605912         0.356288         2.764898
 H         2.781372         2.821670         1.878262
 H         3.624898         1.514911         0.962008
 H         2.123867         1.854228        -1.936109
 H         0.133615        -1.422051         0.220375
 H         0.874920        -0.686337        -1.316668
 H         2.034110        -1.228609        -0.134218
