19
Iteration:  2337
 C        -1.192521         2.097126         0.118108
 C         0.232765         1.761075         0.591946
 O         0.285752         1.936656         1.941783
 C         1.559597         1.084717         1.896177
 C         2.512566         2.147228         1.204855
 C         1.710324         1.845296        -0.100447
 O         2.021939         2.546042        -1.247734
 C         1.082168         0.531751         0.435220
 C         0.797881        -0.803489        -0.206882
 H        -1.844057         1.421880         0.804799
 H        -1.295190         3.142328         0.430289
 H        -1.457930         1.998748        -1.024086
 H         1.541500         0.378445         2.866858
 H         2.620042         3.142983         1.715909
 H         3.507877         1.713784         1.120318
 H         2.235164         2.124720        -2.077691
 H        -0.095062        -1.283111         0.271840
 H         0.501645        -0.474885        -1.308404
 H         1.635348        -1.476000        -0.194741
