19
Iteration:  4562charge 0 multiplicity 1
 C        -1.021786         2.425316         0.101926
 C         0.215359         1.798120         0.646451
 O         0.398408         1.863987         2.085444
 C         1.559626         1.081449         1.866360
 C         2.511941         1.920257         1.208605
 C         1.570086         1.881717        -0.020973
 O         1.847810         2.248419        -1.386113
 C         1.072599         0.565001         0.445143
 C         0.840334        -0.668427        -0.275318
 H        -1.937353         2.014233         0.532815
 H        -1.014293         3.554017         0.142922
 H        -1.272410         2.428766        -1.045510
 H         1.884920         0.291931         2.646424
 H         2.575105         2.896608         1.777534
 H         3.461811         1.298274         1.141215
 H         1.622806         3.178157        -1.580429
 H        -0.057373        -1.247902         0.053699
 H         0.783544        -0.545056        -1.401257
 H         1.737622        -1.350596        -0.142008
