19
Iteration:  2580
 C        -0.971271         2.038924        -0.168484
 C         0.185705         1.842572         0.747953
 O         0.310003         1.931188         2.155035
 C         1.561796         1.061062         1.838630
 C         2.618829         1.957306         1.194172
 C         1.553009         1.998341         0.041281
 O         1.740851         2.524649        -1.330845
 C         1.085951         0.623695         0.406533
 C         0.872808        -0.745194        -0.181054
 H        -1.873807         1.570330         0.201668
 H        -1.227381         3.175804        -0.246410
 H        -0.653010         1.626205        -1.127967
 H         1.663677         0.519213         2.693107
 H         2.998747         2.778287         1.685844
 H         3.317305         1.235919         0.887831
 H         2.488514         1.886725        -1.497487
 H        -0.079181        -1.254671         0.139365
 H         0.637177        -0.463006        -1.323290
 H         1.722707        -1.306061        -0.159050
