19
Iteration:  3821charge 0 multiplicity 1
 C        -1.160110         2.370077         0.038412
 C         0.162204         1.820857         0.614807
 O         0.365820         1.832988         2.022568
 C         1.490240         1.106510         1.878712
 C         2.572337         1.947927         1.261096
 C         1.723383         1.927975        -0.011093
 O         1.850288         2.410289        -1.425663
 C         1.040193         0.586960         0.364240
 C         0.915542        -0.878176        -0.123985
 H        -2.009103         1.822020         0.443582
 H        -1.219070         3.458065         0.354266
 H        -1.405592         2.264214        -1.076913
 H         1.767386         0.428484         2.664174
 H         2.857219         2.888959         1.743355
 H         3.418312         1.216730         1.126482
 H         1.965391         3.390419        -1.267239
 H         0.478154        -1.500740         0.652410
 H         0.624942        -0.854501        -1.143699
 H         1.836761        -1.227107        -0.340875
