19
Iteration:   575
 C        -1.124022         2.254811         0.008216
 C         0.148914         1.722692         0.557289
 O         0.324013         1.924263         2.075610
 C         1.551535         1.016373         1.861697
 C         2.489261         2.145776         1.215885
 C         1.603272         1.881982        -0.056657
 O         1.978860         2.398857        -1.321521
 C         1.074395         0.565652         0.443147
 C         0.869481        -0.759031        -0.150667
 H        -2.054613         1.812897         0.235743
 H        -1.249883         3.238728         0.502841
 H        -1.092570         2.420459        -1.093107
 H         1.835572         0.378610         2.596102
 H         2.543956         3.220641         1.606890
 H         3.511701         1.665806         1.106165
 H         2.571952         1.716560        -1.687584
 H         0.270733        -1.282150         0.451636
 H         0.339903        -0.531133        -1.107574
 H         1.820831        -1.379294        -0.243310
