19
Iteration:  2063charge 0 multiplicity 1
 C        -1.092376         2.400132        -0.042201
 C         0.167708         1.690082         0.544323
 O         0.379077         1.851243         1.965713
 C         1.568331         1.103516         1.861787
 C         2.485952         2.102767         1.186693
 C         1.587984         1.988984        -0.012160
 O         1.841510         2.449214        -1.267405
 C         1.087374         0.479654         0.466861
 C         0.914442        -0.913221        -0.085372
 H        -2.003435         1.697698         0.055520
 H        -1.251878         3.300193         0.609823
 H        -0.931024         2.616905        -1.068690
 H         1.609380         0.657398         2.906341
 H         2.798497         3.147164         1.604867
 H         3.455478         1.609805         0.898886
 H         2.626271         2.031741        -1.641497
 H         0.337033        -1.460930         0.708643
 H         0.093926        -0.810124        -0.971440
 H         1.799484        -1.450890        -0.338027
