19
Iteration:   503
 C        -0.991495         2.326210        -0.191718
 C         0.196421         1.801294         0.595242
 O         0.400184         1.974930         2.034543
 C         1.539797         1.114246         1.910504
 C         2.557419         2.002728         1.159808
 C         1.552464         1.909052         0.053055
 O         1.699534         2.447365        -1.194876
 C         0.981827         0.478253         0.514429
 C         1.017159        -0.866225        -0.231470
 H        -1.881334         1.847002         0.250950
 H        -1.275217         3.286429         0.191517
 H        -0.955181         2.204711        -1.302118
 H         1.706558         0.530935         2.930005
 H         2.757117         2.930919         1.595308
 H         3.391244         1.450825         0.850427
 H         2.450993         1.981753        -1.648832
 H         0.026407        -1.547729         0.186395
 H         0.886766        -0.721746        -1.303273
 H         1.746117        -1.529121         0.081947
