19
Iteration:   693
 C        -1.166680         2.299038        -0.000660
 C         0.172862         1.727525         0.487449
 O         0.318360         1.880605         1.999712
 C         1.507888         1.082711         1.883808
 C         2.596232         2.024916         1.212645
 C         1.658294         2.004043        -0.021654
 O         1.871507         2.553189        -1.363962
 C         1.082453         0.507020         0.477109
 C         0.924146        -0.922917        -0.065673
 H        -2.015409         1.863628         0.494260
 H        -1.220828         3.397201         0.230578
 H        -1.447686         2.234835        -1.085493
 H         1.847729         0.666869         2.888527
 H         2.652862         2.911638         1.736562
 H         3.529191         1.508408         1.127915
 H         2.575850         1.998468        -1.686143
 H        -0.049290        -1.495781         0.316187
 H         0.768336        -0.745112        -1.128629
 H         1.715933        -1.573658         0.231014
