19
Iteration:  3179charge 0 multiplicity 1
 C        -0.972237         2.331422         0.036576
 C         0.164277         1.720516         0.609597
 O         0.350602         1.884045         2.042288
 C         1.472510         1.123855         1.880906
 C         2.442940         2.098016         1.227061
 C         1.657253         1.849024        -0.008097
 O         1.810182         2.281494        -1.361549
 C         1.066039         0.521175         0.502212
 C         0.917912        -0.680713        -0.286340
 H        -1.849368         2.112655         0.635973
 H        -0.884969         3.472356         0.179319
 H        -1.143624         2.056943        -1.067869
 H         1.739351         0.568631         2.892553
 H         2.536820         3.038498         1.812826
 H         3.532321         1.778370         1.126817
 H         2.721500         2.003438        -1.530801
 H         0.042237        -1.274303        -0.011066
 H         0.668055        -0.413363        -1.316393
 H         1.771820        -1.189898        -0.178323
