19
Iteration:  1153charge 0 multiplicity 1
 C        -1.215762         2.232419         0.081801
 C         0.138676         1.781077         0.477598
 O         0.331499         1.928977         1.972216
 C         1.533855         1.078269         1.894029
 C         2.528284         2.018840         1.247225
 C         1.706384         1.895271        -0.043338
 O         1.922721         2.380261        -1.295572
 C         1.091712         0.589513         0.459004
 C         0.891364        -0.698818        -0.182295
 H        -2.055564         1.590422         0.360119
 H        -1.304540         3.243373         0.514962
 H        -1.141300         2.216419        -1.091280
 H         1.907084         0.538717         2.833764
 H         2.658649         2.984881         1.714195
 H         3.514849         1.437544         1.236910
 H         2.604857         1.866886        -1.788953
 H         0.291975        -1.281282         0.519202
 H         0.198693        -0.635241        -0.971691
 H         1.860239        -1.294303        -0.386843
