19
Iteration:  4739charge 0 multiplicity 1
 C        -1.108489         2.286335         0.102709
 C         0.276884         1.897399         0.684781
 O         0.403821         2.032371         2.091301
 C         1.480666         1.110348         1.894666
 C         2.619036         1.821335         1.165516
 C         1.620060         1.927289         0.087370
 O         1.810694         2.299106        -1.318379
 C         1.033201         0.535892         0.433612
 C         0.878043        -0.745232        -0.439822
 H        -1.987913         1.657230         0.247130
 H        -1.478628         3.253107         0.336569
 H        -0.799922         2.156174        -0.937757
 H         1.731999         0.619215         2.813152
 H         3.218878         2.680215         1.519362
 H         3.327853         1.073780         0.897532
 H         1.173255         3.013755        -1.417423
 H        -0.006656        -1.404991        -0.062400
 H         0.754364        -0.615625        -1.519307
 H         1.743752        -1.365276        -0.402882
