19
Iteration:  4514charge 0 multiplicity 1
 C        -1.078686         2.356726         0.109033
 C         0.160032         1.802962         0.658193
 O         0.425194         1.851586         2.064543
 C         1.582637         1.036846         1.882658
 C         2.531340         1.948779         1.191489
 C         1.614126         1.933359         0.016038
 O         1.902717         2.204237        -1.374470
 C         1.015596         0.648578         0.451637
 C         0.789438        -0.634621        -0.289397
 H        -2.023988         1.843137         0.410432
 H        -1.113852         3.422134         0.115131
 H        -1.092989         2.270001        -0.982352
 H         1.914883         0.676664         2.800327
 H         2.775929         2.875051         1.673517
 H         3.376212         1.319751         0.870463
 H         2.038080         3.165407        -1.410215
 H         0.002558        -1.309070         0.082713
 H         0.472672        -0.484094        -1.374503
 H         1.731029        -1.425251        -0.478627
