19
Iteration:   576
 C        -1.131688         2.256067         0.008344
 C         0.154968         1.722255         0.558842
 O         0.324618         1.926646         2.081567
 C         1.552888         1.021673         1.871583
 C         2.480610         2.150669         1.216524
 C         1.609546         1.877424        -0.064169
 O         1.978690         2.399105        -1.324193
 C         1.078663         0.555892         0.441477
 C         0.860189        -0.755267        -0.153049
 H        -2.052635         1.787625         0.231659
 H        -1.209905         3.247522         0.481071
 H        -1.058733         2.425880        -1.110795
 H         1.854218         0.337136         2.635544
 H         2.544602         3.236266         1.622819
 H         3.507739         1.676851         1.114768
 H         2.555658         1.735320        -1.699465
 H         0.303090        -1.306462         0.420744
 H         0.341740        -0.556281        -1.125447
 H         1.796181        -1.369936        -0.262862
