19
Iteration:    81charge 0 multiplicity 1
 C        -1.087966         2.303668        -0.034932
 C         0.153081         1.836906         0.612609
 O         0.348624         2.029285         2.039006
 C         1.467571         1.056214         1.877864
 C         2.601634         1.959045         1.171660
 C         1.626001         1.918904         0.022406
 O         1.775542         2.349841        -1.268706
 C         1.028442         0.554720         0.525198
 C         1.028941        -0.819371        -0.248946
 H        -1.945355         1.603505         0.257756
 H        -1.380613         3.407872         0.137206
 H        -1.190482         2.186507        -1.195590
 H         1.784057         0.521200         2.741922
 H         2.917837         2.910082         1.536031
 H         3.430281         1.351792         0.864342
 H         2.558808         1.991634        -1.697976
 H         0.312227        -1.497394         0.434932
 H         0.468178        -0.640555        -1.154731
 H         1.938108        -1.245992        -0.372844
