19
Iteration:  4647charge 0 multiplicity 1
 C        -1.098210         2.345549        -0.013053
 C         0.247888         1.861122         0.523631
 O         0.388989         1.846094         2.055647
 C         1.581486         0.997142         1.860880
 C         2.612394         1.990948         1.142752
 C         1.628774         1.904780        -0.002447
 O         1.852475         2.391340        -1.222316
 C         1.079335         0.562474         0.386892
 C         0.670136        -0.758839        -0.191148
 H        -1.856904         1.742598         0.453614
 H        -1.220422         3.319960         0.340450
 H        -1.023588         2.081834        -1.037593
 H         2.048560         0.388553         2.676066
 H         2.899871         2.856063         1.684461
 H         3.589391         1.499115         0.985647
 H         1.841793         3.345163        -1.018015
 H         0.287643        -1.215579         0.678319
 H         0.036542        -0.845714        -1.079533
 H         1.571005        -1.443484        -0.530981
