19
Iteration:  4931charge 0 multiplicity 1
 C        -1.129989         2.212733         0.122522
 C         0.215091         1.820542         0.582685
 O         0.460050         1.831965         2.057324
 C         1.567836         0.995865         1.863431
 C         2.608253         2.003428         1.215211
 C         1.635736         1.926064        -0.064744
 O         1.899718         2.391367        -1.378041
 C         1.081803         0.555003         0.526062
 C         0.676901        -0.640188        -0.255763
 H        -1.941188         1.610051         0.376535
 H        -1.321343         3.293743         0.252772
 H        -1.252922         2.076631        -0.977786
 H         1.740729         0.269723         2.678952
 H         2.774450         2.880896         1.820014
 H         3.622769         1.538825         1.063760
 H         1.781221         3.352272        -1.343584
 H        -0.352654        -1.010082         0.082478
 H         0.568798        -0.300442        -1.305773
 H         1.464657        -1.405042        -0.408801
