19
Iteration:  2952
 C        -1.149975         2.164271         0.052720
 C         0.233172         1.964297         0.563638
 O         0.273657         1.930719         2.047795
 C         1.453502         1.071893         1.852847
 C         2.596251         1.915170         1.186149
 C         1.641923         2.006925         0.048925
 O         1.846130         2.290796        -1.252508
 C         1.001532         0.648236         0.431561
 C         0.999742        -0.700215        -0.256816
 H        -1.896878         1.680204         0.640705
 H        -1.524277         3.185636         0.175334
 H        -1.140387         1.959408        -1.036662
 H         1.903816         0.262197         2.617983
 H         3.028703         2.896264         1.658036
 H         3.512361         1.338762         0.842113
 H         2.493171         1.617357        -1.601211
 H         0.090670        -1.285847        -0.097849
 H         1.040184        -0.453612        -1.294687
 H         1.950405        -1.213960        -0.191260
