19
Iteration:  3099charge 0 multiplicity 1
 C        -1.149230         2.230817        -0.061564
 C         0.216115         1.876930         0.539797
 O         0.379148         1.933711         1.982313
 C         1.549088         1.104573         1.935038
 C         2.580687         1.920562         1.209823
 C         1.662574         1.950558         0.033425
 O         1.826133         2.530235        -1.268067
 C         0.992453         0.554886         0.486995
 C         0.898310        -0.877237        -0.181089
 H        -1.810763         1.395071         0.191160
 H        -1.474426         3.184314         0.292158
 H        -1.112894         2.279367        -1.096400
 H         1.745151         0.556865         2.777636
 H         2.808772         2.923952         1.597686
 H         3.323471         1.134551         1.009306
 H         2.436164         1.915564        -1.697937
 H         0.230550        -1.490288         0.374172
 H         0.522202        -0.689400        -1.219659
 H         1.744038        -1.383881        -0.223049
