19
Iteration:   228
 C        -1.022358         2.147096        -0.084932
 C         0.190950         1.849314         0.600015
 O         0.411640         2.025410         2.075227
 C         1.507939         1.142002         1.889286
 C         2.531112         1.933212         1.128983
 C         1.581949         1.919823         0.040222
 O         1.826234         2.453401        -1.269252
 C         0.899859         0.522307         0.517368
 C         0.933355        -0.821094        -0.207588
 H        -1.918634         1.534478         0.156776
 H        -1.307707         3.235410        -0.060982
 H        -0.868464         2.099645        -1.151001
 H         1.776749         0.754537         2.896872
 H         2.877945         2.958571         1.454862
 H         3.382371         1.227319         0.943409
 H         2.605498         1.907324        -1.551288
 H         0.634295        -1.635551         0.388094
 H         0.320556        -0.648859        -1.110479
 H         1.907932        -1.027310        -0.475023
