19
Iteration:  4725charge 0 multiplicity 1
 C        -1.068294         2.244400         0.046757
 C         0.193443         1.801543         0.660177
 O         0.410849         1.986259         2.072917
 C         1.551447         1.037112         1.996723
 C         2.649498         1.866726         1.196528
 C         1.639916         1.928853        -0.052347
 O         1.842742         2.320939        -1.354429
 C         0.965989         0.593423         0.459181
 C         0.790518        -0.668502        -0.357483
 H        -1.718584         1.510046         0.429665
 H        -1.139235         3.210792         0.469195
 H        -1.202343         2.282867        -1.042815
 H         1.729889         0.434751         2.946145
 H         2.917688         2.761859         1.714680
 H         3.539718         1.272667         0.935538
 H         1.400550         3.183421        -1.572976
 H        -0.036462        -1.276885        -0.102492
 H         0.688482        -0.273865        -1.382131
 H         1.793214        -1.297444        -0.303472
