19
Iteration:   418
 C        -1.113682         2.133155         0.007209
 C         0.219984         1.753447         0.590254
 O         0.316152         1.979984         1.995533
 C         1.526872         1.099572         1.849612
 C         2.478489         2.028598         1.135347
 C         1.652195         1.902823        -0.028499
 O         1.989533         2.487602        -1.251042
 C         1.018311         0.544699         0.498163
 C         0.808634        -0.772308        -0.152069
 H        -2.035535         1.734017         0.577755
 H        -1.123092         3.252728         0.166815
 H        -1.289993         2.075139        -1.087144
 H         1.683327         0.501247         2.836984
 H         2.827265         3.096393         1.461769
 H         3.488785         1.462397         1.026223
 H         2.571048         1.887728        -1.707887
 H         0.490935        -1.589468         0.542358
 H         0.172274        -0.674482        -1.014555
 H         1.930507        -1.130081        -0.533668
