19
Iteration:  3492charge 0 multiplicity 1
 C        -1.051655         2.267530        -0.057746
 C         0.238184         1.833461         0.551035
 O         0.356325         1.861998         2.087309
 C         1.537635         0.982574         1.807516
 C         2.566388         2.000424         1.200575
 C         1.679101         1.915752        -0.064208
 O         1.794614         2.524845        -1.296525
 C         0.993686         0.592129         0.494209
 C         0.821613        -0.781835        -0.078987
 H        -1.840674         1.414389         0.077380
 H        -1.499074         3.249419         0.178451
 H        -0.864906         2.369373        -1.177105
 H         1.862062         0.338084         2.705446
 H         2.714062         3.005346         1.699485
 H         3.605991         1.636585         0.991140
 H         2.466437         2.002938        -1.822716
 H         0.111791        -1.383806         0.535068
 H         0.584045        -0.861147        -1.150162
 H         1.718605        -1.304445         0.064335
