19
Iteration:  2894
 C        -1.028467         2.372027         0.047016
 C         0.185908         1.817638         0.562606
 O         0.304978         1.833946         2.004499
 C         1.561356         1.091925         1.920321
 C         2.499862         2.159136         1.208874
 C         1.661088         1.901813         0.056241
 O         1.797401         2.324891        -1.256771
 C         1.038950         0.536713         0.406757
 C         0.877025        -0.869408        -0.283037
 H        -1.873185         1.724931         0.141230
 H        -1.158243         3.432490         0.390837
 H        -0.915876         2.489846        -0.992374
 H         1.927178         0.600436         2.767116
 H         2.452641         3.172093         1.558336
 H         3.506394         1.890654         1.014259
 H         2.726977         2.157533        -1.432894
 H         0.335821        -1.686620         0.101453
 H         0.549232        -0.751179        -1.207937
 H         1.949878        -1.325156        -0.346313
