19
Iteration:  3240charge 0 multiplicity 1
 C        -1.054627         2.320574        -0.157269
 C         0.181463         1.809722         0.653585
 O         0.264995         1.881688         2.094831
 C         1.503272         1.012166         1.803014
 C         2.637951         1.828793         1.114899
 C         1.633967         1.961338        -0.074955
 O         1.854273         2.644609        -1.323703
 C         0.973622         0.538118         0.515019
 C         0.946734        -0.815075         0.025123
 H        -1.989879         1.716030         0.056985
 H        -1.198379         3.345861         0.103923
 H        -0.932399         2.298676        -1.195054
 H         1.549113         0.576772         2.742547
 H         2.823532         2.639659         1.801606
 H         3.367550         1.146529         0.750776
 H         2.385501         2.049911        -1.845322
 H         0.572001        -1.500146         0.790518
 H         0.293243        -0.898941        -0.911841
 H         2.044784        -1.281373        -0.202829
