19
Iteration:  1275
 C        -1.129241         2.410772        -0.002563
 C         0.168629         1.771790         0.618788
 O         0.339489         1.803376         2.066690
 C         1.541320         1.076466         1.835881
 C         2.493849         2.099087         1.201154
 C         1.548273         1.954166        -0.038067
 O         1.928044         2.437829        -1.371572
 C         1.095541         0.546615         0.367553
 C         0.882826        -0.907525        -0.060638
 H        -2.154957         2.178931         0.476459
 H        -0.965225         3.535087        -0.047012
 H        -0.989399         1.957356        -1.047433
 H         1.850104         0.365697         2.667362
 H         2.619784         3.106672         1.633076
 H         3.487930         1.606189         0.980224
 H         2.874211         2.174789        -1.554077
 H         0.063765        -1.285466         0.564262
 H         0.585095        -1.000991        -1.064752
 H         1.825936        -1.543918         0.181025
