19
Iteration:  3701charge 0 multiplicity 1
 C        -1.100257         2.284328        -0.075251
 C         0.168438         1.820861         0.636696
 O         0.370248         1.776267         2.095769
 C         1.579797         1.065580         1.810962
 C         2.521492         2.075028         1.161176
 C         1.666028         1.914569        -0.024758
 O         1.896679         2.463264        -1.278961
 C         1.004219         0.565780         0.423611
 C         0.817102        -0.739914        -0.130781
 H        -1.957918         1.621641         0.129253
 H        -1.340307         3.280874         0.438004
 H        -0.893375         2.334614        -1.173894
 H         1.863570         0.559476         2.734936
 H         2.616876         3.044438         1.612113
 H         3.513279         1.610245         1.048186
 H         2.270911         1.721566        -1.750725
 H         0.055523        -1.315728         0.534114
 H         0.633336        -0.812515        -1.254759
 H         1.782186        -1.339116        -0.024379
