19
Iteration:  3836
 C        -1.046517         2.432962         0.103534
 C         0.192850         1.771902         0.530170
 O         0.253727         1.856447         2.016154
 C         1.512782         0.984282         1.814255
 C         2.562998         2.002786         1.199078
 C         1.590963         1.960281        -0.045376
 O         1.860922         2.349705        -1.320913
 C         1.135324         0.568099         0.395838
 C         0.977560        -0.808619        -0.120722
 H        -2.006609         1.994021         0.569251
 H        -1.062416         3.430195         0.455702
 H        -1.090817         2.440365        -1.013590
 H         1.654683         0.324331         2.687077
 H         2.806653         2.906930         1.755230
 H         3.473622         1.489930         0.923064
 H         1.404233         3.194682        -1.541148
 H         0.372428        -1.319807         0.662728
 H         0.250187        -0.916237        -0.962100
 H         1.952146        -1.420843        -0.208857
