19
Iteration:  1974charge 0 multiplicity 1
 C        -1.001552         2.271267        -0.069703
 C         0.195439         1.757859         0.596279
 O         0.396808         1.879223         2.127203
 C         1.530537         1.143400         1.956060
 C         2.464805         2.144242         1.198456
 C         1.645263         1.814188        -0.039928
 O         1.798242         2.288846        -1.304979
 C         1.056643         0.535751         0.520190
 C         0.862788        -0.654687        -0.288637
 H        -1.884140         1.968362         0.556563
 H        -1.083660         3.439328        -0.147002
 H        -1.083124         1.893674        -1.004929
 H         1.806984         0.645859         2.801139
 H         2.594898         3.203474         1.570996
 H         3.482440         1.620869         1.089002
 H         2.374381         1.791338        -1.891206
 H        -0.057889        -1.203941        -0.020921
 H         0.718459        -0.500257        -1.439267
 H         1.659530        -1.326149        -0.154296
