19
Iteration:  2115charge 0 multiplicity 1
 C        -1.064511         2.132279        -0.156385
 C         0.238505         1.839956         0.623852
 O         0.352154         1.840591         2.078296
 C         1.650635         1.079556         1.895794
 C         2.549011         2.092996         1.253719
 C         1.609783         1.992979        -0.000691
 O         1.765446         2.344964        -1.318721
 C         1.198499         0.565195         0.435734
 C         0.694521        -0.726249        -0.165261
 H        -1.984251         1.565716         0.080598
 H        -1.210809         3.270647        -0.074513
 H        -0.744010         1.999009        -1.117467
 H         1.804556         0.525555         2.744567
 H         2.499355         3.069768         1.707877
 H         3.600260         1.754967         1.189562
 H         2.665254         2.642769        -1.413850
 H         0.012113        -1.191773         0.538433
 H         0.106808        -0.514528        -1.043715
 H         1.548049        -1.446422        -0.424324
