19
Iteration:  3694
 C        -1.027639         2.296193        -0.021065
 C         0.178185         1.840366         0.625577
 O         0.353043         1.776289         2.079568
 C         1.570433         1.062331         1.867282
 C         2.494117         2.028296         1.130228
 C         1.578705         1.865209        -0.065893
 O         1.903322         2.469226        -1.250818
 C         1.008017         0.653465         0.384012
 C         0.856036        -0.781509        -0.118568
 H        -1.950135         1.662927         0.125537
 H        -1.456892         3.160403         0.340687
 H        -0.895864         2.408698        -1.148647
 H         1.868487         0.561037         2.778969
 H         2.672995         3.064019         1.462849
 H         3.469281         1.505639         0.968142
 H         2.431123         1.908164        -1.840350
 H         0.160769        -1.346114         0.424638
 H         0.494515        -0.909718        -1.128887
 H         1.905110        -1.143808         0.121295
