19
Iteration:  1774charge 0 multiplicity 1
 C        -1.047729         2.176100         0.000798
 C         0.234122         1.822213         0.581731
 O         0.322898         2.043264         2.014117
 C         1.503354         1.081626         1.882649
 C         2.567754         1.977391         1.233324
 C         1.574691         1.898106        -0.011992
 O         1.900626         2.354861        -1.302494
 C         1.026957         0.545268         0.556179
 C         0.844291        -0.676506        -0.239407
 H        -1.675048         1.545336         0.554978
 H        -1.172324         3.223042         0.349807
 H        -1.357309         1.971636        -1.189043
 H         1.770055         0.524044         2.825179
 H         2.796015         3.030553         1.472548
 H         3.529757         1.314020         0.954114
 H         2.117497         1.593325        -1.908410
 H         0.140135        -1.450547         0.140499
 H         0.647652        -0.438174        -1.317741
 H         1.881042        -1.194333        -0.322072
