19
Iteration:  4473
 C        -1.084498         2.270289        -0.005598
 C         0.227433         1.929743         0.685979
 O         0.466550         1.984028         2.036002
 C         1.543860         1.072397         1.921102
 C         2.626418         1.810838         1.214568
 C         1.598312         1.938743        -0.011846
 O         1.860405         2.392542        -1.273997
 C         1.009786         0.581259         0.352941
 C         0.752554        -0.810561        -0.290217
 H        -1.786302         1.505261         0.400028
 H        -1.370220         3.288931         0.310122
 H        -0.773470         2.234438        -1.108907
 H         1.649341         0.486644         2.840533
 H         3.090152         2.698927         1.698844
 H         3.426449         1.035673         0.928547
 H         1.165430         3.013845        -1.514051
 H         0.251858        -1.446241         0.365600
 H         0.025726        -0.755166        -1.122881
 H         1.709149        -1.226025        -0.412898
