19
Iteration:  2340charge 0 multiplicity 1
 C        -1.180866         2.087784         0.141195
 C         0.229335         1.748457         0.577474
 O         0.269810         1.928821         1.934361
 C         1.569149         1.068455         1.895556
 C         2.508293         2.152993         1.234758
 C         1.680771         1.848654        -0.085742
 O         2.021868         2.539154        -1.259523
 C         1.112215         0.540501         0.418570
 C         0.780907        -0.793796        -0.200620
 H        -1.780891         1.513689         0.754475
 H        -1.221519         3.151756         0.363313
 H        -1.405172         1.988426        -0.956270
 H         1.658023         0.558451         2.780038
 H         2.571298         3.141284         1.754228
 H         3.568756         1.752226         1.060331
 H         2.312351         2.079042        -2.101306
 H        -0.165360        -1.206441         0.227929
 H         0.496674        -0.488669        -1.298517
 H         1.604796        -1.440175        -0.177211
