19
Iteration:  3456charge 0 multiplicity 1
 C        -0.934980         2.517631        -0.075296
 C         0.221979         1.649538         0.545747
 O         0.257004         1.792361         2.046746
 C         1.543233         1.058521         1.901227
 C         2.551867         2.169795         1.190114
 C         1.674323         1.959512         0.005535
 O         1.645434         2.465190        -1.340256
 C         1.198875         0.415802         0.481801
 C         0.858264        -0.882046        -0.124796
 H        -1.917802         2.137853         0.133587
 H        -0.763600         3.469652         0.365658
 H        -0.832184         2.520582        -1.113387
 H         1.931593         0.434857         2.671940
 H         2.545779         3.014111         1.927847
 H         3.426891         1.553060         1.017060
 H         2.410511         2.111350        -1.876908
 H         0.185404        -1.377212         0.757714
 H         0.133126        -0.798667        -0.939880
 H         1.767440        -1.484561        -0.361502
