19
Iteration:   883charge 0 multiplicity 1
 C        -1.075409         2.292325        -0.077165
 C         0.179832         1.752582         0.540501
 O         0.350936         1.862929         2.013347
 C         1.573239         1.041723         1.871349
 C         2.540685         2.055486         1.186529
 C         1.714778         1.944767        -0.031700
 O         1.760267         2.477707        -1.234751
 C         1.030373         0.550482         0.479150
 C         0.844821        -0.807315        -0.093581
 H        -1.955750         1.717151         0.453305
 H        -1.132100         3.410713        -0.089775
 H        -1.148751         2.016001        -1.162878
 H         1.817003         0.425601         2.737284
 H         2.612893         3.032560         1.670216
 H         3.565003         1.665539         0.996161
 H         2.601707         2.162388        -1.673253
 H         0.042531        -1.475230         0.292969
 H         0.968601        -0.688639        -1.261895
 H         1.839512        -1.304372         0.062258
