19
Iteration:  2261
 C        -0.976283         2.439767        -0.103317
 C         0.222039         1.789194         0.634549
 O         0.290768         1.893332         2.045071
 C         1.531196         1.081663         1.947160
 C         2.582666         2.072634         1.229274
 C         1.599551         1.881673         0.068217
 O         1.575355         2.331862        -1.317240
 C         1.086360         0.471156         0.486854
 C         1.043635        -0.802220        -0.263836
 H        -1.813041         1.677443        -0.122404
 H        -1.341142         3.385577         0.274488
 H        -0.542491         2.510393        -1.156451
 H         1.809506         0.371612         2.826601
 H         2.651154         3.196938         1.516590
 H         3.566592         1.566196         1.149837
 H         2.438954         2.125677        -1.765485
 H         0.747632        -1.577024         0.479455
 H         0.278415        -0.608510        -1.165444
 H         1.958743        -1.091230        -0.682395
