19
Iteration:  2147charge 0 multiplicity 1
 C        -1.060266         2.005809        -0.059879
 C         0.270055         1.810257         0.637135
 O         0.365327         2.021823         1.997942
 C         1.567332         1.195549         1.972573
 C         2.615135         1.935098         1.148288
 C         1.625740         1.853066        -0.054507
 O         1.792190         2.586205        -1.199938
 C         0.981898         0.521441         0.533727
 C         0.773245        -0.770849        -0.278331
 H        -1.931379         1.492746         0.379198
 H        -1.337841         3.122140        -0.190971
 H        -0.963846         1.667598        -1.056754
 H         1.733655         0.738780         2.882630
 H         2.857304         2.922856         1.360064
 H         3.508544         1.319932         1.013597
 H         2.631844         2.242139        -1.608757
 H        -0.015497        -1.402362         0.064580
 H         0.716997        -0.587075        -1.273678
 H         1.694898        -1.466780        -0.138636
