19
Iteration:   900
 C        -1.044679         2.246157        -0.162649
 C         0.136030         1.803260         0.693053
 O         0.340610         1.899449         2.107990
 C         1.524168         1.108194         1.878993
 C         2.640677         1.948974         1.244488
 C         1.616527         1.859565        -0.022847
 O         1.704611         2.543913        -1.355055
 C         1.052093         0.552184         0.447231
 C         0.955946        -0.791371        -0.142796
 H        -1.946569         1.825452         0.068003
 H        -1.067819         3.318420        -0.025427
 H        -0.771703         1.946219        -1.215256
 H         1.783093         0.470196         2.733601
 H         2.794932         2.960557         1.659153
 H         3.529593         1.267241         1.095397
 H         2.534698         2.356445        -1.844897
 H         0.031279        -1.256568         0.238772
 H         0.739645        -0.874765        -1.157677
 H         1.767604        -1.453716         0.160455
