19
Iteration:  3561
 C        -1.095021         2.099223         0.121602
 C         0.258837         1.858882         0.607735
 O         0.354657         1.954044         2.032653
 C         1.518043         1.131507         1.957912
 C         2.516026         2.028412         1.317547
 C         1.729903         1.888952        -0.008388
 O         1.844378         2.362856        -1.367481
 C         1.111967         0.572747         0.397759
 C         0.746627        -0.697978        -0.335867
 H        -1.992869         1.481502         0.593970
 H        -1.442315         3.279822         0.020300
 H        -0.988842         1.851860        -1.069039
 H         1.629137         0.491996         2.817193
 H         2.615293         3.047926         1.689002
 H         3.581714         1.655204         1.248848
 H         2.560479         1.942076        -1.901835
 H        -0.063707        -1.165264         0.032945
 H         0.611579        -0.398176        -1.374224
 H         1.567359        -1.464471        -0.415550
