19
Iteration:  2443charge 0 multiplicity 1
 C        -1.055627         2.304126        -0.035764
 C         0.200089         1.761716         0.535802
 O         0.335642         1.927311         2.020812
 C         1.462401         1.113699         1.902631
 C         2.572254         1.980174         1.140346
 C         1.648573         1.823495        -0.035749
 O         1.725600         2.552969        -1.187259
 C         1.039492         0.496345         0.478486
 C         1.010624        -0.803803        -0.176365
 H        -2.037708         1.780854         0.124037
 H        -1.284135         3.298335         0.311847
 H        -0.926708         2.396395        -1.091402
 H         1.583366         0.298167         2.767170
 H         2.723845         2.999033         1.581111
 H         3.493162         1.364217         0.967310
 H         2.287066         2.080903        -1.811303
 H         0.633322        -1.560454         0.520511
 H         0.554863        -0.930170        -1.103475
 H         2.148603        -1.143554        -0.330931
