19
Iteration:  3501charge 0 multiplicity 1
 C        -1.101263         2.166271        -0.110626
 C         0.153257         1.895789         0.616603
 O         0.378120         1.922761         2.176055
 C         1.556238         1.035412         1.852126
 C         2.610166         1.942881         1.198462
 C         1.613261         1.916127        -0.075619
 O         1.875886         2.531676        -1.319288
 C         0.992857         0.589955         0.421676
 C         0.831194        -0.794934        -0.099299
 H        -1.833771         1.385856         0.104300
 H        -1.336948         3.104629         0.296230
 H        -0.943300         2.327819        -1.141513
 H         1.763590         0.218272         2.607880
 H         2.594275         2.991216         1.513165
 H         3.441775         1.398120         0.806830
 H         2.691188         2.139582        -1.751200
 H        -0.063930        -1.434582         0.393409
 H         0.669343        -0.723655        -1.197679
 H         1.780171        -1.315967         0.007231
