19
Iteration:  4325
 C        -1.106526         2.342683         0.067853
 C         0.174549         1.876819         0.690480
 O         0.440283         1.984556         2.042276
 C         1.528422         1.070090         1.875731
 C         2.592905         1.842973         1.189743
 C         1.639747         1.826021        -0.023843
 O         1.856123         2.202072        -1.271605
 C         0.912147         0.633035         0.413961
 C         0.921964        -0.643227        -0.332107
 H        -1.823337         1.554730         0.294632
 H        -1.230051         3.439013         0.303171
 H        -1.091228         2.528219        -0.983690
 H         1.882038         0.542948         2.846094
 H         3.065366         2.688565         1.714565
 H         3.369341         1.155566         0.923298
 H         1.151446         2.839612        -1.585855
 H         0.097076        -1.173806         0.143174
 H         0.634747        -0.428886        -1.335543
 H         1.944601        -1.149825        -0.249907
