19
Iteration:   612
 C        -0.984965         2.178028        -0.115372
 C         0.262732         1.764054         0.581867
 O         0.272460         1.897919         2.023653
 C         1.567016         1.141730         1.919372
 C         2.592276         2.161563         1.224566
 C         1.663516         1.918298         0.066368
 O         1.734474         2.325341        -1.230473
 C         1.115059         0.553989         0.473529
 C         0.776011        -0.711281        -0.262035
 H        -1.895083         1.578004         0.254818
 H        -1.066804         3.253298         0.130330
 H        -0.833385         2.055539        -1.208368
 H         1.787954         0.321730         2.838846
 H         2.832453         3.197347         1.656721
 H         3.527377         1.590240         1.046309
 H         2.439963         1.895451        -1.698528
 H         0.182695        -1.418555         0.427895
 H         0.083987        -0.608133        -1.088758
 H         1.622068        -1.141229        -0.723768
