19
Iteration:  4604
 C        -1.029795         2.378963        -0.062667
 C         0.219302         1.894321         0.627428
 O         0.428982         1.897391         2.110013
 C         1.565478         1.010920         1.841446
 C         2.542026         1.808209         1.126117
 C         1.626085         1.828079        -0.021617
 O         1.827334         2.446255        -1.250693
 C         0.949490         0.604254         0.439103
 C         0.845485        -0.757265        -0.169109
 H        -1.833582         1.742251         0.295145
 H        -1.196157         3.396654         0.268977
 H        -1.136818         2.249250        -1.191831
 H         1.801161         0.443235         2.797731
 H         3.006341         2.696922         1.516031
 H         3.411209         1.165623         0.771686
 H         1.123574         3.067839        -1.412405
 H         0.225516        -1.354874         0.463385
 H         0.642359        -0.525334        -1.255511
 H         1.938997        -1.222042        -0.385509
