19
Iteration:   718
 C        -1.026310         2.315564         0.067543
 C         0.210488         1.811355         0.548390
 O         0.276116         1.823614         2.019050
 C         1.496546         1.005747         1.807347
 C         2.479436         2.132659         1.180315
 C         1.658791         1.915744        -0.052995
 O         1.840110         2.407408        -1.272332
 C         1.122732         0.579908         0.308162
 C         0.882800        -0.800802        -0.033194
 H        -1.816956         1.659918         0.377024
 H        -1.264688         3.352717         0.250221
 H        -1.171302         2.265937        -1.040017
 H         1.797510         0.568201         2.637455
 H         2.455667         3.060730         1.740017
 H         3.492092         1.738349         1.051669
 H         2.642318         2.064449        -1.660609
 H         0.084964        -1.386515         0.478786
 H         0.842486        -0.896461        -1.199742
 H         1.876211        -1.276247         0.485649
