19
Iteration:  4502
 C        -1.095844         2.319577         0.029943
 C         0.194104         1.870473         0.655717
 O         0.397791         1.883925         2.062478
 C         1.573436         1.009600         1.910784
 C         2.632308         1.907602         1.140498
 C         1.595297         1.879709        -0.039028
 O         1.916594         2.260900        -1.342332
 C         0.962418         0.571981         0.474094
 C         0.776376        -0.599720        -0.253037
 H        -1.944948         1.789354         0.533000
 H        -1.263286         3.315598         0.409765
 H        -1.003024         2.171856        -1.010814
 H         1.677802         0.296463         2.677514
 H         2.858199         2.868222         1.587039
 H         3.563658         1.434292         0.907842
 H         1.697848         3.232525        -1.425905
 H         0.081684        -1.315063         0.274963
 H         0.417651        -0.270499        -1.255546
 H         1.928291        -0.992075        -0.268625
