19
Iteration:   578
 C        -1.142950         2.261320         0.005240
 C         0.166907         1.723745         0.564802
 O         0.326091         1.927921         2.090138
 C         1.554322         1.037950         1.888547
 C         2.465398         2.158020         1.217000
 C         1.623986         1.872179        -0.075542
 O         1.975651         2.399712        -1.328019
 C         1.087517         0.538097         0.441174
 C         0.848549        -0.743991        -0.166398
 H        -2.070022         1.706670         0.233661
 H        -1.133534         3.270809         0.433310
 H        -0.994844         2.430369        -1.115548
 H         1.888585         0.260593         2.728478
 H         2.537526         3.216296         1.645399
 H         3.482940         1.717926         1.125640
 H         2.544115         1.754218        -1.740635
 H         0.270657        -1.435811         0.443869
 H         0.356656        -0.622785        -1.151457
 H         1.741983        -1.335985        -0.313651
