19
Iteration:   875
 C        -1.056978         2.284698        -0.053698
 C         0.245535         1.807456         0.539567
 O         0.314272         1.869851         1.973108
 C         1.562876         1.041981         1.831980
 C         2.540654         2.098250         1.201620
 C         1.582731         1.917888         0.022093
 O         1.817119         2.456143        -1.227649
 C         1.093268         0.520739         0.470865
 C         0.864214        -0.809432        -0.119020
 H        -1.851535         1.860374         0.605452
 H        -1.170987         3.335966         0.144286
 H        -1.219281         1.946570        -1.009409
 H         1.784583         0.329926         2.711463
 H         2.542710         3.131209         1.666290
 H         3.488578         1.754475         0.804360
 H         2.584053         2.154993        -1.788526
 H         0.008426        -1.400859         0.198928
 H         0.608371        -0.818802        -1.163730
 H         1.829515        -1.475440         0.162952
