19
Iteration:  4281
 C        -1.065177         2.427745         0.055311
 C         0.122147         1.835743         0.618200
 O         0.394220         1.858609         2.070704
 C         1.612482         1.071451         1.798809
 C         2.579153         1.959286         1.175766
 C         1.633402         1.885876        -0.003299
 O         1.858640         2.243916        -1.294665
 C         1.077559         0.590265         0.388349
 C         0.758515        -0.789614        -0.241512
 H        -2.046587         1.951109         0.395871
 H        -1.056958         3.561036         0.373025
 H        -1.047407         2.573048        -1.019142
 H         1.823990         0.408661         2.705273
 H         2.643205         3.000591         1.532282
 H         3.515492         1.417805         1.233007
 H         1.949126         3.238468        -1.188558
 H         0.174498        -1.329323         0.477930
 H         0.289249        -0.693631        -1.179949
 H         1.792744        -1.182197        -0.270225
