19
Iteration:  3483charge 0 multiplicity 1
 C        -1.004446         2.328372        -0.066404
 C         0.263129         1.819709         0.589071
 O         0.352456         1.814662         1.966371
 C         1.547154         1.030647         1.843842
 C         2.562882         2.051498         1.178988
 C         1.674654         1.932576         0.025911
 O         1.733510         2.500258        -1.278716
 C         1.039982         0.536807         0.414944
 C         0.826415        -0.804935        -0.045638
 H        -1.910661         1.586319         0.122860
 H        -1.390692         3.309744         0.422214
 H        -0.838663         2.315539        -1.219114
 H         1.822380         0.361930         2.727384
 H         2.593863         2.937403         1.853709
 H         3.575179         1.556256         1.200237
 H         2.299644         1.944496        -1.885495
 H         0.094666        -1.250654         0.516133
 H         0.394307        -0.814022        -1.055333
 H         1.762320        -1.347162         0.003300
