19
Iteration:  3633charge 0 multiplicity 1
 C        -0.967261         2.357315        -0.049796
 C         0.230256         1.878040         0.594702
 O         0.324116         1.956514         2.022364
 C         1.434580         1.023328         1.835558
 C         2.571772         1.953536         1.174443
 C         1.626222         1.883094        -0.019631
 O         1.673576         2.475534        -1.221788
 C         1.029947         0.495599         0.428385
 C         0.999336        -0.861266        -0.137905
 H        -1.774976         1.807652         0.383152
 H        -1.029273         3.456373         0.372204
 H        -0.922501         2.311347        -1.093752
 H         1.723574         0.318581         2.689571
 H         2.762495         2.955711         1.642916
 H         3.501177         1.417487         1.121593
 H         2.352888         2.226730        -1.887976
 H         0.590745        -1.696970         0.619989
 H         0.460818        -0.854811        -1.124061
 H         1.958879        -1.234972        -0.460338
