19
Iteration:  4847
 C        -1.019424         2.368465         0.058643
 C         0.197774         1.810200         0.708403
 O         0.424917         1.864724         2.083704
 C         1.515553         0.970107         1.883229
 C         2.574940         1.986649         1.115335
 C         1.599041         1.999179         0.016966
 O         1.818825         2.342448        -1.325327
 C         1.069316         0.570184         0.312943
 C         0.812953        -0.792232        -0.254003
 H        -1.913813         1.828229         0.463724
 H        -1.132617         3.493379         0.222112
 H        -0.835317         2.220790        -1.039689
 H         1.743830         0.286147         2.671748
 H         2.727393         2.993020         1.564831
 H         3.466008         1.394537         1.041053
 H         1.693587         3.327124        -1.315109
 H         0.243787        -1.241488         0.589281
 H         0.087449        -0.688543        -1.052738
 H         1.719615        -1.516079        -0.399875
