19
Iteration:  2794charge 0 multiplicity 1
 C        -1.107397         2.147844         0.035631
 C         0.295367         1.756282         0.521762
 O         0.276917         1.885065         1.971890
 C         1.527163         1.082279         1.866420
 C         2.540730         2.105992         1.182787
 C         1.644821         2.033556        -0.015778
 O         1.918051         2.485250        -1.222373
 C         1.127749         0.536283         0.454780
 C         0.758865        -0.857093        -0.200225
 H        -1.883572         1.727747         0.719074
 H        -1.241778         3.202279         0.239710
 H        -1.361914         1.879064        -1.042155
 H         1.669425         0.548325         2.784327
 H         2.649665         3.023464         1.781330
 H         3.440042         1.501373         1.028451
 H         2.873108         2.666063        -1.334925
 H        -0.018079        -1.441747         0.279535
 H         0.373260        -0.704394        -1.180060
 H         1.631351        -1.614760        -0.435323
