19
Iteration:  3529charge 0 multiplicity 1
 C        -1.164007         2.040299         0.019637
 C         0.169959         1.848994         0.561577
 O         0.372951         1.992902         1.953285
 C         1.594965         1.097820         1.879764
 C         2.648039         1.897568         1.148091
 C         1.558029         2.006168         0.051405
 O         1.931970         2.428639        -1.215942
 C         0.984812         0.571660         0.521059
 C         0.773631        -0.685493        -0.215771
 H        -1.939822         1.246154         0.362938
 H        -1.582730         3.102359         0.403919
 H        -0.950878         1.897383        -1.119390
 H         1.779260         0.557810         2.771645
 H         3.076862         2.863294         1.462643
 H         3.464834         1.258168         0.636214
 H         2.864696         2.375313        -1.535815
 H        -0.082214        -1.238002        -0.053556
 H         0.694159        -0.432704        -1.270120
 H         1.705825        -1.320338        -0.059776
