19
Iteration:   913
 C        -0.933219         2.241204        -0.149042
 C         0.225186         1.821760         0.633897
 O         0.280415         1.951033         2.096888
 C         1.542362         1.025616         1.911086
 C         2.585243         1.931752         1.154732
 C         1.568187         1.989495         0.001220
 O         1.645140         2.491270        -1.273776
 C         1.089987         0.594475         0.474197
 C         0.939291        -0.836009        -0.135161
 H        -1.835370         1.657183         0.080606
 H        -1.291374         3.287821        -0.172445
 H        -0.624460         2.023864        -1.257209
 H         1.648007         0.367975         2.718430
 H         3.070357         2.744224         1.663688
 H         3.429651         1.315253         0.695393
 H         2.482045         2.148874        -1.671646
 H         0.114604        -1.431826         0.307766
 H         0.883274        -0.690300        -1.262604
 H         1.793664        -1.339246         0.026997
