19
Iteration:  4546charge 0 multiplicity 1
 C        -1.050382         2.436653         0.120789
 C         0.205554         1.870622         0.616734
 O         0.359123         1.814139         2.056319
 C         1.552100         0.984076         1.864245
 C         2.591012         2.086224         1.182737
 C         1.719041         1.858932        -0.009640
 O         1.804323         2.171054        -1.336325
 C         0.974494         0.586310         0.447481
 C         0.815122        -0.691160        -0.319260
 H        -1.834295         1.987064         0.754942
 H        -1.075384         3.496824         0.301434
 H        -1.062675         2.176943        -0.893366
 H         1.800018         0.510617         2.762127
 H         2.559279         3.088545         1.579055
 H         3.601660         1.745544         1.014989
 H         2.146918         3.104693        -1.267615
 H        -0.101144        -1.294144        -0.142084
 H         0.639054        -0.438068        -1.369542
 H         1.724372        -1.368209        -0.118992
