19
Iteration:  2491
 C        -1.159493         2.380539         0.048653
 C         0.074443         1.768059         0.615276
 O         0.255000         1.697700         2.045352
 C         1.541650         0.989261         1.773169
 C         2.551491         2.141804         1.184769
 C         1.658747         1.947728        -0.026154
 O         1.957172         2.366488        -1.293351
 C         1.090830         0.650669         0.311565
 C         1.023203        -0.717341        -0.066931
 H        -2.021379         1.835175         0.443522
 H        -1.379937         3.315099         0.616015
 H        -1.340406         2.575916        -1.082774
 H         1.897082         0.353544         2.663963
 H         2.393201         3.131893         1.561671
 H         3.556378         1.859519         1.052384
 H         2.163477         1.493876        -1.731186
 H         0.369381        -1.240952         0.658124
 H         0.415962        -0.620339        -1.066342
 H         1.881239        -1.294133        -0.254875
