19
Iteration:  3734
 C        -1.021150         2.119047        -0.013499
 C         0.308751         1.817386         0.607201
 O         0.357994         1.874206         1.990912
 C         1.568595         1.104218         1.920065
 C         2.517724         2.084454         1.313624
 C         1.639078         1.949036         0.043933
 O         1.765480         2.378112        -1.304046
 C         1.185021         0.540828         0.407590
 C         0.716891        -0.632876        -0.299064
 H        -1.750621         1.452920         0.480483
 H        -1.117859         3.251489         0.099447
 H        -0.973679         2.055188        -1.159729
 H         1.807464         0.649356         2.887498
 H         2.582066         2.972709         1.884090
 H         3.490503         1.603516         1.078727
 H         2.162620         1.612187        -1.772425
 H        -0.228649        -1.031776         0.283784
 H         0.318509        -0.526051        -1.386333
 H         1.455367        -1.487685        -0.163461
