19
Iteration:  3415
 C        -1.029573         2.398547        -0.093163
 C         0.104475         1.832657         0.682914
 O         0.392365         1.913547         2.099610
 C         1.501753         0.986891         1.809453
 C         2.574644         2.009159         1.165479
 C         1.564437         1.959777         0.017829
 O         1.761171         2.361537        -1.291104
 C         1.005289         0.589249         0.439456
 C         1.006071        -0.892719        -0.187734
 H        -2.094465         2.099439         0.365382
 H        -1.077816         3.501514         0.122755
 H        -1.039237         2.187617        -1.189933
 H         1.730467         0.341172         2.712034
 H         2.772749         3.039221         1.559373
 H         3.583400         1.546311         1.085245
 H         2.726161         2.353525        -1.429320
 H         0.473569        -1.658722         0.342856
 H         0.457879        -0.843531        -1.125718
 H         1.973847        -1.201948        -0.406261
