19
Iteration:  2101charge 0 multiplicity 1
 C        -0.943017         2.234884        -0.095714
 C         0.239384         1.831775         0.633423
 O         0.321507         1.713604         2.092182
 C         1.531750         1.042862         1.865555
 C         2.532579         2.239703         1.300423
 C         1.718341         1.942752         0.006915
 O         1.773910         2.319523        -1.425669
 C         1.077781         0.634137         0.398786
 C         0.709613        -0.719266        -0.107285
 H        -1.625004         1.482987         0.205787
 H        -1.437940         3.185977         0.034235
 H        -0.890205         2.066322        -1.241242
 H         2.030106         0.400367         2.596050
 H         2.554902         3.142598         1.832504
 H         3.489232         1.820073         1.062173
 H         2.709286         2.591401        -1.641322
 H         0.245410        -1.223417         0.728042
 H         0.094202        -0.748056        -0.909969
 H         1.598793        -1.365298        -0.376305
