19
Iteration:  4728
 C        -1.041786         2.233316         0.070380
 C         0.176438         1.816943         0.644796
 O         0.412438         2.005035         2.083323
 C         1.531381         1.036235         2.015568
 C         2.659812         1.856906         1.178225
 C         1.636192         1.936392        -0.023133
 O         1.835388         2.322120        -1.357477
 C         0.982535         0.605144         0.437339
 C         0.815966        -0.705934        -0.379778
 H        -1.792696         1.527851         0.431990
 H        -1.242766         3.244710         0.386042
 H        -1.126117         2.339578        -1.007846
 H         1.730671         0.524650         2.953013
 H         2.929853         2.759863         1.744897
 H         3.452506         1.180910         0.924462
 H         1.353194         3.125006        -1.561526
 H        -0.089766        -1.372124        -0.138035
 H         0.679850        -0.287986        -1.376659
 H         1.716627        -1.258462        -0.308651
