19
Iteration:  4189
 C        -1.095003         2.245131        -0.038618
 C         0.166184         1.883348         0.693749
 O         0.459363         1.956662         2.164969
 C         1.512928         1.035755         1.921585
 C         2.675260         1.895761         1.170680
 C         1.632545         1.900058        -0.032236
 O         1.925926         2.414849        -1.332877
 C         1.016222         0.559876         0.369114
 C         0.723047        -0.770014        -0.269857
 H        -2.011912         1.884019         0.300179
 H        -1.317796         3.385259         0.026011
 H        -1.036028         2.067081        -1.136402
 H         1.784066         0.303458         2.641419
 H         2.920605         2.833074         1.599451
 H         3.506092         1.185546         1.111180
 H         1.430587         3.233788        -1.419397
 H        -0.147435        -1.301721         0.332156
 H         0.199026        -0.760527        -1.346139
 H         1.643527        -1.403469        -0.210298
