19
Iteration:  4924
 C        -1.153376         2.179833         0.072656
 C         0.265372         1.859415         0.582730
 O         0.450194         1.880519         2.046246
 C         1.548805         1.005270         1.888319
 C         2.694216         1.994102         1.201355
 C         1.713023         1.889669        -0.026075
 O         1.863578         2.406150        -1.339454
 C         1.038381         0.547226         0.481304
 C         0.623511        -0.685070        -0.274345
 H        -1.933501         1.512423         0.579384
 H        -1.527092         3.172992         0.423298
 H        -1.185518         2.099909        -1.034551
 H         1.643934         0.311767         2.704315
 H         2.740379         2.869964         1.902231
 H         3.694676         1.733956         0.862434
 H         1.639590         3.330694        -1.214011
 H        -0.258555        -1.187582        -0.064972
 H         0.579016        -0.212171        -1.241047
 H         1.536358        -1.341666        -0.358972
