19
Iteration:  4877
 C        -1.112855         2.200410        -0.076594
 C         0.206397         1.830469         0.633886
 O         0.407440         1.907768         2.107508
 C         1.658679         0.915142         1.890589
 C         2.692207         1.860954         1.089685
 C         1.639994         2.005239         0.007079
 O         1.870142         2.454745        -1.351361
 C         0.930500         0.561773         0.580371
 C         0.725755        -0.644650        -0.223970
 H        -1.935621         1.576926         0.237679
 H        -1.621484         3.099971         0.343259
 H        -0.968625         2.248227        -1.215410
 H         1.962784         0.269453         2.765228
 H         2.988887         2.839897         1.558884
 H         3.612024         1.211294         0.968211
 H         1.329284         3.275702        -1.396226
 H         0.080319        -1.241380         0.298200
 H         0.240661        -0.305687        -1.088427
 H         1.687441        -1.159860        -0.400011
