19
Iteration:   437
 C        -1.170244         2.293351        -0.053920
 C         0.175816         1.800070         0.563023
 O         0.335256         1.869753         1.999816
 C         1.589329         1.125606         1.921218
 C         2.590871         2.148704         1.278710
 C         1.641936         1.916921         0.010014
 O         1.886379         2.390370        -1.306967
 C         1.094487         0.571021         0.402558
 C         0.817819        -0.856336        -0.215251
 H        -1.849012         1.794484         0.593364
 H        -1.286498         3.327265         0.034959
 H        -1.070605         1.820009        -1.042556
 H         1.705509         0.518274         2.896463
 H         2.642633         2.965897         1.898959
 H         3.551470         1.769663         1.237865
 H         2.545635         1.833014        -1.751786
 H         0.376310        -1.523419         0.624713
 H         0.130745        -0.735043        -1.027720
 H         1.525441        -1.547670        -0.451381
