19
Iteration:   300
 C        -0.992255         2.340451        -0.039783
 C         0.218466         1.814839         0.569357
 O         0.332595         1.815191         2.071888
 C         1.524775         1.089380         1.855705
 C         2.483895         2.112227         1.191140
 C         1.545977         1.913229        -0.030068
 O         1.816201         2.341080        -1.351174
 C         1.098677         0.558312         0.468585
 C         0.916203        -0.809155        -0.119906
 H        -1.967543         2.108708         0.450568
 H        -1.112640         3.424574         0.266618
 H        -1.082177         2.448659        -1.106048
 H         1.792975         0.364329         2.689944
 H         2.411010         3.075635         1.781886
 H         3.553836         1.845671         1.168894
 H         2.475957         1.800780        -1.805519
 H         0.022376        -1.376892         0.317652
 H         0.830627        -0.629407        -1.210260
 H         1.839413        -1.428771         0.151766
