19
Iteration:  4605charge 0 multiplicity 1
 C        -1.027067         2.370501        -0.056428
 C         0.224761         1.886205         0.628515
 O         0.429888         1.905771         2.114959
 C         1.558365         0.999924         1.850012
 C         2.537623         1.808836         1.127209
 C         1.629562         1.823212        -0.026555
 O         1.827209         2.455756        -1.260626
 C         0.950775         0.599475         0.434710
 C         0.851981        -0.751466        -0.166974
 H        -1.849473         1.744142         0.268500
 H        -1.201408         3.426566         0.237122
 H        -1.153478         2.277737        -1.211187
 H         1.816916         0.431519         2.824785
 H         3.007300         2.713022         1.552539
 H         3.388812         1.154765         0.747722
 H         1.139360         3.090281        -1.440587
 H         0.204001        -1.350133         0.478882
 H         0.598901        -0.524455        -1.251247
 H         1.924805        -1.220831        -0.376277
