19
Iteration:  3067charge 0 multiplicity 1
 C        -1.020981         2.281113        -0.010877
 C         0.181402         1.778487         0.601789
 O         0.284054         1.819211         1.970040
 C         1.561142         1.041017         1.780121
 C         2.487750         2.049541         1.122841
 C         1.628746         1.898874         0.005228
 O         1.918848         2.524540        -1.279252
 C         1.034380         0.600663         0.398186
 C         0.839905        -0.856602         0.011219
 H        -1.909831         1.670489         0.275112
 H        -1.261594         3.279288         0.458786
 H        -0.873187         2.404922        -1.041219
 H         1.830702         0.301579         2.421235
 H         2.603799         3.060024         1.536764
 H         3.540194         1.666698         1.025832
 H         2.917485         2.617530        -1.230628
 H         0.335640        -1.322467         0.826706
 H         0.103918        -0.905511        -0.890022
 H         1.611598        -1.419909        -0.362640
