19
Iteration:  3558
 C        -1.131794         2.101385         0.101298
 C         0.253031         1.839905         0.579751
 O         0.364070         1.984866         2.046213
 C         1.483241         1.132588         1.929642
 C         2.540172         2.005428         1.306994
 C         1.717675         1.863024         0.005257
 O         1.857322         2.372057        -1.360962
 C         1.129820         0.563231         0.422242
 C         0.772107        -0.672185        -0.341721
 H        -1.934046         1.513417         0.580880
 H        -1.477383         3.094882         0.171788
 H        -1.003672         1.792885        -0.939776
 H         1.716713         0.487885         2.859305
 H         2.685639         3.030156         1.628926
 H         3.524898         1.598520         1.298533
 H         2.565510         2.128337        -1.959710
 H        -0.170994        -1.155881         0.076829
 H         0.551515        -0.403148        -1.416673
 H         1.528487        -1.423501        -0.323790
