19
Iteration:  1277charge 0 multiplicity 1
 C        -1.120879         2.402226        -0.002725
 C         0.173630         1.783189         0.611730
 O         0.345662         1.798846         2.054322
 C         1.525519         1.057275         1.841496
 C         2.491655         2.099795         1.189727
 C         1.542290         1.952023        -0.031782
 O         1.935904         2.438891        -1.361319
 C         1.085506         0.556836         0.381365
 C         0.884467        -0.906578        -0.060746
 H        -2.182377         2.148021         0.540845
 H        -0.955311         3.541627        -0.068750
 H        -1.006530         1.985866        -1.000705
 H         1.857435         0.439274         2.628213
 H         2.653358         3.146008         1.609284
 H         3.443932         1.613018         0.929319
 H         2.870490         2.197374        -1.594638
 H         0.074390        -1.270140         0.637429
 H         0.600588        -1.024364        -1.131957
 H         1.845053        -1.548577         0.190765
