19
Iteration:  3122
 C        -1.008527         2.154397        -0.060797
 C         0.203326         1.826014         0.670479
 O         0.345794         2.051359         2.057229
 C         1.458037         1.020187         1.858540
 C         2.598690         1.940822         1.204484
 C         1.694363         1.873257         0.049679
 O         1.737194         2.390295        -1.289376
 C         1.033391         0.634454         0.476419
 C         0.908729        -0.657052        -0.266608
 H        -1.763404         1.425979         0.222961
 H        -1.237405         3.225061         0.152885
 H        -0.874587         2.039559        -1.114602
 H         1.572421         0.264441         2.608711
 H         2.535249         2.840518         1.818771
 H         3.483585         1.325684         0.927507
 H         2.115253         1.696624        -1.868218
 H         0.226209        -1.330943         0.173567
 H         0.905393        -0.566132        -1.388423
 H         1.746201        -1.110114        -0.018777
