19
Iteration:   328charge 0 multiplicity 1
 C        -0.970807         2.333443        -0.088576
 C         0.112857         1.662235         0.670726
 O         0.287781         1.826200         2.083749
 C         1.612342         1.177724         1.891484
 C         2.577895         2.202237         1.158436
 C         1.672068         1.866355        -0.001510
 O         1.778038         2.377520        -1.288352
 C         1.099443         0.543270         0.456720
 C         0.809216        -0.855459        -0.196102
 H        -2.017779         2.055736         0.023222
 H        -0.864638         3.349624         0.255478
 H        -0.784673         2.424055        -1.199625
 H         1.827347         0.600875         2.759831
 H         2.342379         3.209178         1.580701
 H         3.668100         1.969845         1.247490
 H         2.282436         1.828206        -1.872986
 H        -0.205975        -1.215129         0.128564
 H         0.756920        -0.750354        -1.278373
 H         1.679369        -1.525710        -0.078365
