19
Iteration:  3602
 C        -1.076978         2.370729        -0.156217
 C         0.120282         1.760735         0.705217
 O         0.347286         1.748416         2.094795
 C         1.610852         1.053439         1.906570
 C         2.546835         2.075619         1.155228
 C         1.549323         1.923238         0.011065
 O         1.835465         2.362927        -1.295229
 C         1.115400         0.620920         0.458782
 C         0.893044        -0.689212        -0.191140
 H        -2.093352         2.195724         0.108980
 H        -1.016812         3.328576         0.015710
 H        -0.786648         1.929023        -1.044778
 H         1.967759         0.473604         2.817344
 H         2.693585         3.024207         1.645259
 H         3.530989         1.655407         0.992163
 H         2.238645         1.677758        -1.838467
 H         0.069608        -1.341687         0.329396
 H         0.276627        -0.469111        -1.129452
 H         1.785116        -1.273190        -0.376482
