19
Iteration:  3102charge 0 multiplicity 1
 C        -1.123016         2.208553        -0.042029
 C         0.228108         1.902360         0.540117
 O         0.366934         1.954200         1.993368
 C         1.547888         1.091943         1.920366
 C         2.599925         1.923176         1.232276
 C         1.647865         1.943470         0.003467
 O         1.809707         2.514094        -1.252335
 C         0.968717         0.546917         0.464115
 C         0.914891        -0.853810        -0.186692
 H        -1.781198         1.352489         0.160874
 H        -1.489812         3.265456         0.299750
 H        -1.075504         2.216700        -1.183390
 H         1.682895         0.496105         2.878500
 H         2.838370         2.933626         1.573175
 H         3.406260         1.174245         1.053762
 H         2.373743         1.856588        -1.751731
 H         0.143211        -1.496844         0.295795
 H         0.491055        -0.619027        -1.198296
 H         1.868194        -1.440374        -0.181481
