19
Iteration:  4280
 C        -1.066097         2.430379         0.059464
 C         0.122106         1.822201         0.617933
 O         0.392637         1.863419         2.075225
 C         1.605674         1.066607         1.793488
 C         2.579734         1.965539         1.170408
 C         1.634046         1.883800        -0.013460
 O         1.858114         2.245185        -1.284102
 C         1.080019         0.594976         0.388166
 C         0.758199        -0.789725        -0.238407
 H        -1.992230         1.942091         0.371787
 H        -1.019894         3.546194         0.340031
 H        -1.041403         2.574652        -1.017079
 H         1.826395         0.394075         2.673081
 H         2.627138         2.984565         1.518513
 H         3.531452         1.447409         1.221652
 H         1.970323         3.229927        -1.162031
 H         0.154431        -1.330852         0.513909
 H         0.269947        -0.681564        -1.204777
 H         1.797105        -1.174320        -0.267819
