19
Iteration:  4276charge 0 multiplicity 1
 C        -1.058892         2.455100         0.069461
 C         0.148239         1.758905         0.624618
 O         0.384033         1.882199         2.089756
 C         1.561442         1.036189         1.786845
 C         2.584165         1.997121         1.142861
 C         1.636712         1.868822        -0.047192
 O         1.859014         2.262068        -1.253049
 C         1.064970         0.603975         0.388454
 C         0.762987        -0.778512        -0.213984
 H        -1.909890         1.869176         0.317653
 H        -0.927040         3.459564         0.267294
 H        -1.004459         2.506767        -1.046769
 H         1.849921         0.345654         2.522951
 H         2.599983         3.007874         1.565408
 H         3.624874         1.578627         1.086554
 H         2.068985         3.186638        -1.144460
 H         0.116547        -1.318579         0.569780
 H         0.232012        -0.657786        -1.244732
 H         1.762144        -1.228426        -0.313851
