19
Iteration:    86charge 0 multiplicity 1
 C        -1.161313         2.290607        -0.053658
 C         0.166420         1.856158         0.633385
 O         0.380999         2.027244         2.000873
 C         1.472645         1.076582         1.879441
 C         2.584881         1.891896         1.202318
 C         1.644793         1.896167         0.000091
 O         1.759172         2.376933        -1.285002
 C         1.047351         0.528117         0.512807
 C         1.009650        -0.764570        -0.187808
 H        -1.972604         1.630720         0.234953
 H        -1.441478         3.322500         0.069799
 H        -1.116406         2.236995        -1.103120
 H         1.745682         0.414088         2.824084
 H         2.950693         2.897251         1.625168
 H         3.486358         1.237404         0.933890
 H         2.585780         2.163508        -1.773679
 H         0.432966        -1.431984         0.358508
 H         0.527170        -0.525624        -1.177130
 H         2.075691        -1.335248        -0.300983
