19
Iteration:  1680
 C        -0.960902         2.431909        -0.091733
 C         0.239469         1.774172         0.577034
 O         0.325241         1.827430         2.014059
 C         1.576804         1.084207         1.885199
 C         2.517827         2.224384         1.194084
 C         1.663698         1.840422         0.013540
 O         1.726260         2.403616        -1.261112
 C         1.126388         0.487984         0.450041
 C         0.787823        -0.918569        -0.140849
 H        -1.962501         2.105391         0.308008
 H        -0.830610         3.521401         0.136237
 H        -0.982649         2.357982        -1.079993
 H         1.874902         0.551392         2.798973
 H         2.494575         3.268180         1.537556
 H         3.451798         1.768593         1.202966
 H         2.224877         1.769244        -1.767683
 H         0.168405        -1.449860         0.570981
 H         0.318672        -0.859312        -1.151888
 H         1.699394        -1.457286        -0.269392
