19
Iteration:  3051charge 0 multiplicity 1
 C        -1.046180         2.340655        -0.048399
 C         0.258445         1.836589         0.475541
 O         0.333067         1.731579         2.107156
 C         1.553901         0.997005         1.804127
 C         2.521993         2.132697         1.242485
 C         1.657342         1.970907        -0.074504
 O         1.865689         2.486840        -1.324378
 C         1.066359         0.553605         0.354087
 C         0.729884        -0.897639         0.000397
 H        -1.853708         1.676811         0.194671
 H        -1.245939         3.360637         0.235367
 H        -0.941276         2.363135        -1.200216
 H         1.755829         0.482763         2.888532
 H         2.260723         3.071743         1.764628
 H         3.487956         1.694349         1.067888
 H         2.784321         2.819679        -1.356079
 H         0.476125        -1.391983         0.978683
 H         0.118511        -0.999079        -0.839142
 H         1.771650        -1.412895        -0.330295
