19
Iteration:  1702charge 0 multiplicity 1
 C        -1.045666         2.372431        -0.089268
 C         0.169819         1.759963         0.598712
 O         0.331161         1.908947         2.070327
 C         1.558475         1.110069         1.908229
 C         2.580621         2.059452         1.161509
 C         1.622295         1.867941        -0.015622
 O         1.793035         2.382012        -1.326410
 C         1.066550         0.541014         0.468579
 C         0.862662        -0.833689        -0.142045
 H        -1.964781         1.999270         0.437488
 H        -0.924734         3.477701        -0.106276
 H        -1.159798         2.012972        -1.009003
 H         1.728904         0.476256         2.777850
 H         2.630933         2.994129         1.730226
 H         3.508107         1.573701         1.075287
 H         2.774297         2.206768        -1.437951
 H         0.346817        -1.524708         0.519267
 H         0.213997        -0.762740        -1.067968
 H         1.773946        -1.264718        -0.522904
