19
Iteration:  4471charge 0 multiplicity 1
 C        -1.076227         2.281934         0.008260
 C         0.222773         1.906895         0.657848
 O         0.471541         1.979549         2.021570
 C         1.553127         1.058698         1.935123
 C         2.631565         1.809081         1.212736
 C         1.584493         1.927331        -0.024989
 O         1.856382         2.407366        -1.268902
 C         1.015285         0.592730         0.380518
 C         0.739625        -0.785621        -0.286584
 H        -1.756166         1.442791         0.359782
 H        -1.369056         3.314517         0.226286
 H        -0.769930         2.235243        -1.044905
 H         1.578028         0.529209         2.831657
 H         3.062703         2.682018         1.716788
 H         3.416085         1.058084         0.935741
 H         1.181895         3.019830        -1.541308
 H         0.262592        -1.457637         0.406808
 H         0.017397        -0.832101        -1.124822
 H         1.787615        -1.300093        -0.423332
