19
Iteration:  3507
 C        -1.132620         2.123651        -0.118729
 C         0.174296         1.872964         0.673082
 O         0.401053         1.954108         2.172151
 C         1.546171         1.072986         1.868711
 C         2.581388         1.918201         1.123855
 C         1.564861         1.922961        -0.012038
 O         1.921867         2.526499        -1.326568
 C         0.992591         0.611711         0.392877
 C         0.829271        -0.801444        -0.128145
 H        -1.976774         1.422099         0.095026
 H        -1.557833         3.075962         0.415376
 H        -0.929446         2.185062        -1.242622
 H         1.717821         0.337602         2.611625
 H         2.880895         2.886048         1.621614
 H         3.532212         1.325885         0.923958
 H         2.786720         2.197238        -1.603025
 H        -0.008073        -1.305566         0.208205
 H         0.620803        -0.688370        -1.190988
 H         1.790822        -1.396962         0.021239
