19
Iteration:  4495charge 0 multiplicity 1
 C        -1.113206         2.317521         0.035797
 C         0.213170         1.865708         0.588955
 O         0.361276         1.958454         2.155068
 C         1.545204         0.979797         1.839483
 C         2.674164         1.902974         1.115066
 C         1.650156         1.892103        -0.043438
 O         1.902616         2.288807        -1.304606
 C         0.958970         0.598741         0.524774
 C         0.796836        -0.662808        -0.280065
 H        -1.778988         1.563220         0.507810
 H        -1.348890         3.370732         0.291829
 H        -0.938853         2.191773        -1.103515
 H         1.673858         0.229941         2.647498
 H         2.890838         2.864466         1.629129
 H         3.629907         1.306202         0.881279
 H         1.502858         3.180160        -1.452528
 H         0.150394        -1.370489         0.166950
 H         0.234145        -0.491332        -1.216554
 H         1.761039        -1.163251        -0.342032
