19
Iteration:  4708
 C        -1.115548         2.255288         0.078982
 C         0.199281         1.861394         0.580350
 O         0.411891         1.868199         2.060150
 C         1.595225         0.991465         1.808101
 C         2.611624         2.005547         1.172733
 C         1.660555         1.867868         0.036098
 O         1.890988         2.277104        -1.319846
 C         1.058454         0.581948         0.513555
 C         0.728966        -0.616653        -0.278755
 H        -2.034991         1.649575         0.395055
 H        -1.472804         3.365622         0.180460
 H        -1.039492         2.285253        -1.028114
 H         1.904505         0.384900         2.618338
 H         2.627921         2.997861         1.740592
 H         3.526666         1.424831         0.994276
 H         1.726856         3.249831        -1.247651
 H        -0.211872        -1.178646         0.111009
 H         0.465783        -0.228103        -1.279613
 H         1.506811        -1.280707        -0.280858
