19
Iteration:  2553charge 0 multiplicity 1
 C        -1.044416         2.070943        -0.202104
 C         0.243195         1.830860         0.611502
 O         0.407987         1.923938         2.064955
 C         1.540117         1.100758         1.893665
 C         2.642547         1.956611         1.187172
 C         1.650438         1.908782         0.090455
 O         1.628459         2.431009        -1.251088
 C         0.985764         0.579252         0.527312
 C         0.883938        -0.612770        -0.229301
 H        -1.793053         1.346854         0.221259
 H        -1.360429         3.063038        -0.120978
 H        -0.883777         1.797310        -1.292437
 H         1.660487         0.451016         2.898558
 H         2.882800         2.978381         1.723742
 H         3.547537         1.279028         1.026254
 H         2.607573         2.357916        -1.411850
 H        -0.059648        -1.110904        -0.129346
 H         0.773489        -0.249579        -1.205549
 H         1.910968        -1.230776        -0.288213
