19
Iteration:  3753
 C        -1.054934         2.070585        -0.071656
 C         0.252043         1.827572         0.631074
 O         0.287402         1.911444         2.094677
 C         1.567777         1.065281         1.908115
 C         2.651581         2.080724         1.228391
 C         1.721210         1.862551        -0.033752
 O         1.765893         2.374024        -1.290602
 C         1.083633         0.587249         0.510566
 C         0.710933        -0.606617        -0.283812
 H        -1.671920         1.395141         0.455175
 H        -1.269852         3.209173         0.038085
 H        -1.046451         1.776165        -1.077150
 H         1.669668         0.402785         2.798225
 H         2.782229         3.172472         1.481555
 H         3.627271         1.576866         1.176909
 H         2.613067         2.216561        -1.718658
 H        -0.158302        -1.155340         0.042863
 H         0.658954        -0.164917        -1.244695
 H         1.448488        -1.274238        -0.497299
