19
Iteration:  3655charge 0 multiplicity 1
 C        -1.173393         2.430141        -0.067415
 C         0.171646         1.768197         0.482346
 O         0.417605         1.963992         1.923908
 C         1.541901         1.067029         1.917121
 C         2.619873         1.850112         1.270609
 C         1.640774         1.886993        -0.010143
 O         1.681162         2.530536        -1.234314
 C         0.991311         0.498711         0.403763
 C         1.012955        -0.866449        -0.080135
 H        -2.009925         1.804988         0.176834
 H        -1.282413         3.426505         0.616643
 H        -1.063278         2.548304        -1.113011
 H         1.690548         0.306777         2.750392
 H         2.963842         2.751332         1.836537
 H         3.504030         1.315334         0.963671
 H         2.574655         2.524140        -1.625453
 H         0.574772        -1.635861         0.728212
 H         0.496496        -0.978164        -1.085043
 H         1.998057        -1.217030        -0.300909
