19
Iteration:  2967
 C        -1.088085         2.157649        -0.053985
 C         0.164911         1.836803         0.617200
 O         0.408269         2.005108         2.032952
 C         1.490718         0.991766         1.874803
 C         2.565398         1.911782         1.216645
 C         1.600053         1.951341         0.044753
 O         1.820623         2.407367        -1.277218
 C         1.010651         0.621393         0.488847
 C         0.974840        -0.616256        -0.272646
 H        -1.799769         1.470783         0.514029
 H        -1.394643         3.213643        -0.001053
 H        -1.150940         1.799375        -1.099616
 H         1.438457         0.443535         2.817485
 H         2.889027         2.816369         1.819296
 H         3.456623         1.220664         0.996179
 H         2.113471         1.643737        -1.812897
 H         0.134712        -1.282701         0.081156
 H         0.896054        -0.619873        -1.450642
 H         1.829984        -1.175235         0.040362
