19
Iteration:  3979charge 0 multiplicity 1
 C        -1.185915         2.262312         0.011849
 C         0.176423         1.800759         0.628875
 O         0.407270         1.865798         2.043893
 C         1.596160         1.046638         1.864420
 C         2.631027         2.019284         1.236536
 C         1.656231         2.003294        -0.019377
 O         2.016805         2.410481        -1.298069
 C         1.066391         0.512793         0.405943
 C         0.686330        -0.752338        -0.235398
 H        -1.997795         1.795303         0.647984
 H        -1.307031         3.324111         0.211581
 H        -1.325833         1.895669        -0.975881
 H         1.724230         0.464648         2.826709
 H         2.807827         2.887325         1.848407
 H         3.513205         1.510352         0.979565
 H         1.275534         2.539470        -1.939545
 H        -0.033671        -1.286243         0.367065
 H         0.290174        -0.522361        -1.241826
 H         1.462487        -1.372052        -0.391152
