19
Iteration:  4802
 C        -1.065302         2.542727         0.127229
 C         0.143178         1.854151         0.632759
 O         0.309404         1.803982         2.118317
 C         1.548187         1.010901         1.834970
 C         2.587810         2.003222         1.111250
 C         1.669090         1.852987        -0.028158
 O         1.776193         2.255825        -1.267637
 C         1.071367         0.559208         0.375253
 C         0.926868        -0.795970        -0.304938
 H        -2.000553         2.284204         0.646428
 H        -1.000490         3.684991         0.209814
 H        -1.090567         2.390263        -1.008278
 H         1.825581         0.364583         2.687323
 H         2.690286         3.011037         1.495289
 H         3.536810         1.594822         0.693411
 H         1.902318         3.226249        -1.311201
 H         0.413178        -1.362130         0.441591
 H         0.459063        -0.866105        -1.274334
 H         2.013032        -1.258083        -0.189865
