19
Iteration:  1103charge 0 multiplicity 1
 C        -1.043735         2.328269        -0.167805
 C         0.137068         1.732664         0.569699
 O         0.356774         1.825313         2.119203
 C         1.577859         1.046126         1.869060
 C         2.542601         2.059170         1.220498
 C         1.631607         1.885581        -0.011596
 O         1.779166         2.482235        -1.305582
 C         1.110919         0.582909         0.409477
 C         0.832486        -0.783230        -0.068523
 H        -1.985774         1.894707         0.355711
 H        -1.067848         3.431126        -0.041473
 H        -0.894201         1.991403        -1.194194
 H         1.853495         0.532427         2.791025
 H         2.663109         3.075593         1.655910
 H         3.565237         1.750145         0.991343
 H         2.579402         2.053855        -1.598795
 H        -0.020537        -1.273345         0.504663
 H         0.672462        -0.757488        -1.308518
 H         1.685164        -1.466999        -0.040498
