19
Iteration:  2551
 C        -1.044730         2.071486        -0.198212
 C         0.233057         1.827589         0.614844
 O         0.413672         1.931785         2.052943
 C         1.537146         1.096395         1.881550
 C         2.646629         1.971388         1.200156
 C         1.636167         1.883210         0.089863
 O         1.634162         2.426216        -1.237006
 C         0.999961         0.573190         0.518932
 C         0.886553        -0.612756        -0.225330
 H        -1.789756         1.346348         0.218833
 H        -1.350718         3.108550        -0.100595
 H        -0.965702         1.858821        -1.240368
 H         1.636586         0.539920         2.817223
 H         2.890879         2.974198         1.697155
 H         3.574394         1.312485         1.071249
 H         2.594182         2.368592        -1.426181
 H        -0.053061        -1.159158        -0.148613
 H         0.807757        -0.215551        -1.211638
 H         1.841656        -1.215198        -0.325445
