19
Iteration:   344charge 0 multiplicity 1
 C        -0.905049         2.295258        -0.101272
 C         0.273348         1.765102         0.557683
 O         0.308407         1.849501         2.102683
 C         1.529329         1.125257         1.941344
 C         2.485361         2.131523         1.197449
 C         1.621009         1.896806        -0.025495
 O         1.729220         2.413350        -1.325456
 C         1.086837         0.502967         0.509439
 C         0.826860        -0.792271        -0.189909
 H        -1.809695         1.681213         0.230470
 H        -1.270110         3.320486         0.208877
 H        -0.726488         2.303262        -1.169377
 H         2.057127         0.580019         2.771436
 H         2.735688         3.188841         1.592659
 H         3.483916         1.614389         0.990551
 H         2.347933         1.825463        -1.807603
 H         0.020140        -1.368646         0.260413
 H         0.672743        -0.495803        -1.241573
 H         1.563949        -1.579980         0.041601
