19
Iteration:   760
 C        -0.975370         2.226390        -0.132491
 C         0.217105         1.761321         0.637480
 O         0.300911         1.932392         2.062516
 C         1.524145         1.170851         1.957057
 C         2.579767         1.994246         1.171558
 C         1.610348         1.968101         0.061898
 O         1.703743         2.418262        -1.284372
 C         1.079721         0.554806         0.483861
 C         0.931647        -0.820297        -0.262714
 H        -1.822295         1.583795        -0.037145
 H        -1.257203         3.211932         0.285916
 H        -0.657648         2.279718        -1.228019
 H         1.835958         0.685761         2.837374
 H         2.684939         2.954838         1.551780
 H         3.490156         1.460039         1.039457
 H         2.385113         1.821470        -1.720068
 H         0.175349        -1.459771         0.285169
 H         0.361529        -0.666168        -1.204847
 H         1.810856        -1.371198        -0.273340
