19
Iteration:  1394
 C        -1.039597         2.289425        -0.028964
 C         0.234031         1.765620         0.580591
 O         0.253190         1.907628         1.982723
 C         1.598494         1.045793         1.906534
 C         2.578731         2.147744         1.243486
 C         1.672863         1.923500         0.024284
 O         1.776813         2.229662        -1.307709
 C         1.142722         0.582064         0.525894
 C         0.748978        -0.696107        -0.211448
 H        -1.786068         1.565196         0.131538
 H        -1.183282         3.319947         0.426512
 H        -0.796642         2.425365        -1.115365
 H         1.975148         0.367896         2.795668
 H         2.471272         3.203667         1.533575
 H         3.658419         1.922727         1.082815
 H         2.566822         1.783929        -1.653665
 H        -0.039495        -1.328442         0.207296
 H         0.456825        -0.418780        -1.309822
 H         1.652464        -1.368759        -0.399589
