19
Iteration:   750charge 0 multiplicity 1
 C        -1.053646         2.298913        -0.110102
 C         0.158209         1.755582         0.662190
 O         0.286661         1.901289         2.061456
 C         1.591241         1.090046         1.904044
 C         2.592994         2.103145         1.253364
 C         1.599449         1.949251         0.017113
 O         1.750900         2.429835        -1.349654
 C         1.108152         0.524556         0.470025
 C         0.873003        -0.853724        -0.178593
 H        -1.883536         1.623764        -0.064847
 H        -1.356507         3.338849         0.094114
 H        -0.633800         2.320406        -1.171204
 H         1.872970         0.670906         2.771284
 H         2.909668         2.909549         1.824484
 H         3.471306         1.599699         0.923510
 H         2.528520         1.834531        -1.626320
 H         0.114015        -1.525689         0.318121
 H         0.780520        -0.739866        -1.320633
 H         1.848572        -1.368915        -0.367351
