19
Iteration:  4586charge 0 multiplicity 1
 C        -1.055982         2.419264         0.059186
 C         0.200112         1.844256         0.653934
 O         0.351328         1.907970         2.041203
 C         1.518427         0.988410         1.841058
 C         2.758235         1.938607         1.083946
 C         1.621899         1.951210         0.079971
 O         1.820718         2.337532        -1.249832
 C         0.927790         0.537697         0.451095
 C         0.869511        -0.784677        -0.254248
 H        -2.006780         1.892491         0.219709
 H        -1.227650         3.538023        -0.055445
 H        -0.980287         2.304343        -1.078445
 H         1.803228         0.306225         2.701296
 H         3.065236         2.871038         1.688150
 H         3.550923         1.252236         0.778706
 H         1.257768         2.981398        -1.672123
 H         0.043480        -1.449087         0.222261
 H         0.601824        -0.712713        -1.318932
 H         1.759676        -1.283309        -0.138509
