19
Iteration:  4767
 C        -1.129475         2.416466         0.055880
 C         0.209759         1.811480         0.632659
 O         0.443015         1.915637         2.072431
 C         1.528056         0.945719         1.858206
 C         2.616248         1.835154         1.151051
 C         1.621844         1.957139         0.024064
 O         1.808548         2.290605        -1.354247
 C         0.889648         0.536446         0.505005
 C         0.935469        -0.626747        -0.255185
 H        -2.090004         1.890073         0.318778
 H        -1.078195         3.564585         0.314375
 H        -1.051043         2.242364        -1.061307
 H         1.817674         0.374413         2.796653
 H         2.886152         2.796800         1.606859
 H         3.585115         1.416575         0.721208
 H         1.280453         3.126966        -1.374833
 H         0.313559        -1.413333        -0.009056
 H         0.896143        -0.461025        -1.337013
 H         2.052559        -0.985867        -0.143353
