19
Iteration:   979charge 0 multiplicity 1
 C        -1.145661         2.250104         0.067478
 C         0.190676         1.780039         0.552733
 O         0.284686         1.859083         1.964417
 C         1.546693         1.085674         1.912600
 C         2.562366         2.164673         1.229499
 C         1.642838         1.927731         0.000033
 O         1.914647         2.287325        -1.296195
 C         1.009429         0.571126         0.410993
 C         0.861135        -0.717542        -0.202968
 H        -1.899449         1.626773         0.564634
 H        -1.229854         3.248719         0.523328
 H        -1.186891         2.391208        -1.040171
 H         1.903236         0.500665         2.748965
 H         2.729273         3.106778         1.729164
 H         3.610414         1.707607         1.079949
 H         2.733283         1.841681        -1.507539
 H         0.486819        -1.566248         0.395419
 H         0.464112        -0.602443        -1.279704
 H         1.879092        -0.971595        -0.573054
