19
Iteration:  2393
 C        -0.973774         2.113443        -0.163312
 C         0.197628         1.807395         0.710029
 O         0.339551         1.814649         2.141750
 C         1.585148         1.074203         1.875819
 C         2.564564         2.023549         1.162251
 C         1.632974         1.931838        -0.008538
 O         1.727040         2.405838        -1.305785
 C         1.035486         0.664182         0.477198
 C         0.845367        -0.641316        -0.193447
 H        -1.878291         1.575163         0.200609
 H        -1.218898         3.197341        -0.293917
 H        -0.749268         1.706873        -1.266512
 H         1.839280         0.332568         2.719444
 H         2.571122         3.020289         1.667074
 H         3.542415         1.513389         1.193346
 H         2.627450         2.704732        -1.598659
 H        -0.118101        -1.118440         0.129912
 H         0.667231        -0.529673        -1.372741
 H         1.693585        -1.240270        -0.085059
