19
Iteration:  2717
 C        -1.083911         2.248833        -0.119139
 C         0.216168         1.753571         0.591315
 O         0.319576         1.958493         2.072991
 C         1.508351         1.144780         1.925655
 C         2.631180         1.955683         1.257391
 C         1.622949         1.846462         0.030249
 O         1.696282         2.437015        -1.238292
 C         1.029217         0.489175         0.528277
 C         1.019246        -0.680978        -0.318537
 H        -1.920119         1.500613         0.078480
 H        -1.310269         3.256188         0.150392
 H        -0.943045         2.333973        -1.282462
 H         1.720963         0.621983         2.986941
 H         2.876860         3.040395         1.579537
 H         3.607443         1.395134         1.100645
 H         1.982251         1.793441        -1.883507
 H         0.191168        -1.299328         0.002303
 H         0.822665        -0.495954        -1.348954
 H         2.088911        -1.191527        -0.489362
