19
Iteration:    57charge 0 multiplicity 1
 C        -0.989451         2.384260         0.002978
 C         0.158652         1.763678         0.676641
 O         0.315585         1.818846         2.038553
 C         1.584477         1.174914         1.935268
 C         2.480872         2.118156         1.202357
 C         1.590675         1.894118        -0.018842
 O         1.851875         2.254090        -1.328754
 C         1.004592         0.551526         0.468659
 C         0.920700        -0.747770        -0.254603
 H        -1.983172         2.009308         0.230077
 H        -1.001496         3.480375         0.102537
 H        -0.937582         2.232248        -1.126204
 H         1.912676         0.681939         2.756523
 H         2.510159         3.113411         1.572421
 H         3.448804         1.736414         1.032860
 H         2.319628         1.508210        -1.812618
 H         0.518360        -1.597283         0.390872
 H         0.329417        -0.659833        -1.156383
 H         1.889619        -0.973845        -0.510616
