19
Iteration:  1342charge 0 multiplicity 1
 C        -0.973626         2.169319        -0.139368
 C         0.191875         1.898439         0.594274
 O         0.334229         2.012992         2.027146
 C         1.547510         1.103296         1.839386
 C         2.633028         1.897712         1.220314
 C         1.595156         1.883154         0.011179
 O         1.745272         2.412426        -1.239638
 C         1.005843         0.580838         0.571705
 C         0.878043        -0.717607        -0.209178
 H        -1.882515         1.564671         0.376744
 H        -1.360219         3.239167         0.059702
 H        -0.875241         1.782254        -1.118200
 H         1.785936         0.531309         2.708087
 H         2.923000         2.873965         1.730289
 H         3.490960         1.277374         0.920546
 H         2.342117         1.846518        -1.717959
 H         0.245429        -1.490803         0.209524
 H         0.319159        -0.563179        -1.060691
 H         1.896957        -1.267801        -0.382732
