19
Iteration:   749charge 0 multiplicity 1
 C        -1.058385         2.301355        -0.104696
 C         0.146726         1.760581         0.658063
 O         0.289335         1.894605         2.062082
 C         1.600445         1.081396         1.895271
 C         2.593939         2.118209         1.262638
 C         1.596017         1.948114         0.005581
 O         1.758450         2.427347        -1.350693
 C         1.107658         0.519844         0.469515
 C         0.876467        -0.853468        -0.175191
 H        -1.881516         1.640536        -0.074618
 H        -1.357211         3.360132         0.077529
 H        -0.664448         2.336480        -1.188481
 H         1.865417         0.618762         2.807101
 H         2.914196         2.900209         1.830907
 H         3.456502         1.604097         0.925704
 H         2.537502         1.860511        -1.649318
 H         0.114203        -1.536575         0.328496
 H         0.790267        -0.720095        -1.278835
 H         1.792379        -1.353691        -0.309051
