19
Iteration:  3537charge 0 multiplicity 1
 C        -1.162624         2.013206         0.006779
 C         0.234179         1.832929         0.550624
 O         0.357237         2.012090         1.965201
 C         1.579225         1.097378         1.896185
 C         2.644482         1.932864         1.142472
 C         1.622454         1.944732         0.041381
 O         1.888592         2.416597        -1.235785
 C         0.993995         0.593131         0.518985
 C         0.774455        -0.660990        -0.232220
 H        -1.912115         1.329772         0.588915
 H        -1.461079         3.038601         0.374826
 H        -1.421115         2.016552        -1.113510
 H         1.642919         0.465538         2.840069
 H         3.052481         2.812263         1.654909
 H         3.542041         1.376834         0.859647
 H         2.872855         2.278174        -1.398627
 H        -0.131710        -1.241069        -0.083773
 H         0.749804        -0.258804        -1.271480
 H         1.595193        -1.338680        -0.231246
