19
Iteration:  2064
 C        -1.091665         2.406938        -0.038418
 C         0.170559         1.690836         0.552884
 O         0.368839         1.842204         1.969702
 C         1.570318         1.102252         1.857277
 C         2.481038         2.107203         1.192736
 C         1.595284         1.978343        -0.019006
 O         1.839329         2.445894        -1.275908
 C         1.097702         0.481705         0.462141
 C         0.913063        -0.901322        -0.084301
 H        -1.984137         1.692322         0.068238
 H        -1.266308         3.274452         0.586717
 H        -0.924223         2.614539        -1.126238
 H         1.645107         0.624389         2.940645
 H         2.793745         3.152728         1.614850
 H         3.435548         1.631917         0.883458
 H         2.658677         2.033676        -1.624552
 H         0.336263        -1.420301         0.729077
 H         0.071332        -0.802268        -0.949058
 H         1.763678        -1.433635        -0.327354
