19
Iteration:  1331charge 0 multiplicity 1
 C        -1.099724         2.189834        -0.111026
 C         0.256732         1.831533         0.558973
 O         0.405255         2.031618         2.010961
 C         1.487142         1.094218         2.008149
 C         2.610010         1.857597         1.221777
 C         1.636888         1.939537         0.028753
 O         1.739245         2.465140        -1.280753
 C         1.029553         0.560196         0.438274
 C         0.870226        -0.771639        -0.186504
 H        -1.935523         1.563686         0.441492
 H        -1.268769         3.323264        -0.213644
 H        -1.106395         1.946634        -1.160421
 H         1.611064         0.513225         2.918260
 H         2.957606         2.854219         1.647065
 H         3.489996         1.216636         1.022302
 H         2.348082         1.899733        -1.810868
 H         0.334434        -1.412119         0.496211
 H         0.521534        -0.686245        -1.160301
 H         1.938532        -1.201008        -0.380356
