19
Iteration:  4733
 C        -1.042017         2.233949         0.102351
 C         0.208135         1.848132         0.639352
 O         0.410287         2.026292         2.094456
 C         1.498195         1.060290         1.981488
 C         2.647031         1.844087         1.160941
 C         1.625146         1.937895         0.046795
 O         1.827649         2.313252        -1.354634
 C         1.013547         0.592943         0.420630
 C         0.829224        -0.741646        -0.406538
 H        -1.970526         1.625162         0.392776
 H        -1.462088         3.315016         0.339782
 H        -0.923878         2.319562        -1.010643
 H         1.745581         0.611818         2.971930
 H         3.031296         2.749796         1.701398
 H         3.405597         1.035830         0.897760
 H         1.232571         3.101010        -1.502967
 H         0.001195        -1.371430        -0.186228
 H         0.682285        -0.406266        -1.459617
 H         1.803186        -1.353205        -0.337691
