19
Iteration:  2343
 C        -1.149817         2.083624         0.153017
 C         0.218009         1.730826         0.540773
 O         0.259954         1.914249         1.936771
 C         1.571301         1.067124         1.873399
 C         2.511080         2.144648         1.267570
 C         1.646361         1.871079        -0.057022
 O         2.020020         2.529870        -1.278385
 C         1.149137         0.547530         0.406317
 C         0.746413        -0.764862        -0.201971
 H        -1.843332         1.552265         0.771903
 H        -1.183898         3.190481         0.296446
 H        -1.327999         1.955396        -0.828334
 H         1.866359         0.688266         2.833904
 H         2.476055         3.103451         1.755000
 H         3.561269         1.826809         1.012816
 H         2.375903         1.991603        -2.009390
 H        -0.196125        -1.117511         0.173878
 H         0.535484        -0.582364        -1.181811
 H         1.648254        -1.500928        -0.166890
