19
Iteration:  2371charge 0 multiplicity 1
 C        -1.126393         2.120070        -0.063333
 C         0.192503         1.838240         0.598814
 O         0.334511         1.727528         2.094436
 C         1.596943         1.003997         1.830055
 C         2.577505         2.232912         1.254976
 C         1.622172         2.036866         0.032713
 O         1.892695         2.366193        -1.309749
 C         1.145800         0.647091         0.409859
 C         0.727294        -0.716526        -0.170750
 H        -1.945301         1.651661         0.539342
 H        -1.350925         3.195023        -0.155521
 H        -1.174847         1.690299        -1.165982
 H         1.973547         0.372677         2.715201
 H         2.702500         3.230834         1.736297
 H         3.519003         1.767942         0.930940
 H         2.765780         2.096451        -1.588296
 H        -0.316799        -1.008100         0.129044
 H         0.620306        -0.610696        -1.356986
 H         1.439892        -1.468281        -0.061895
