19
Iteration:  4157charge 0 multiplicity 1
 C        -1.070674         2.251955         0.074037
 C         0.266011         1.886010         0.541931
 O         0.413133         1.905929         2.056424
 C         1.560568         1.025048         1.911880
 C         2.558828         1.956349         1.147848
 C         1.534153         1.924907         0.031290
 O         1.970775         2.278450        -1.289048
 C         1.029583         0.556094         0.507117
 C         0.724508        -0.657596        -0.317835
 H        -1.779108         1.735135         0.631248
 H        -1.022280         3.405080         0.373847
 H        -1.384014         2.444850        -1.011926
 H         1.929085         0.413989         2.689376
 H         2.830428         2.823419         1.685825
 H         3.399579         1.262649         1.110793
 H         1.300166         2.676387        -1.919374
 H        -0.132088        -1.233109         0.169843
 H         0.560228        -0.191554        -1.364845
 H         1.626799        -1.237940        -0.414713
