19
Iteration:  3973
 C        -1.245980         2.238211         0.027728
 C         0.216099         1.831013         0.620576
 O         0.386453         1.884858         2.028248
 C         1.650973         1.056098         1.852622
 C         2.618778         2.001201         1.221327
 C         1.602228         1.956883         0.034935
 O         2.035286         2.387398        -1.289643
 C         1.048168         0.545756         0.419356
 C         0.722498        -0.740660        -0.250350
 H        -1.935470         1.756340         0.675736
 H        -1.306272         3.388467         0.081458
 H        -1.228454         2.017373        -1.085952
 H         1.811507         0.411350         2.693171
 H         2.837287         2.919429         1.843555
 H         3.600785         1.466729         0.968567
 H         1.276969         2.716985        -1.826702
 H        -0.166878        -1.257609         0.225376
 H         0.138434        -0.492542        -1.154136
 H         1.583750        -1.575914        -0.370915
