19
Iteration:  4859
 C        -1.063386         2.320872        -0.008368
 C         0.192506         1.868606         0.650661
 O         0.414038         1.818188         2.122579
 C         1.607119         1.033045         1.767631
 C         2.645642         1.943042         1.158241
 C         1.622526         1.883799        -0.003323
 O         1.834808         2.369453        -1.254507
 C         0.991798         0.624594         0.418741
 C         0.745613        -0.725769        -0.189615
 H        -1.938786         1.640259         0.228165
 H        -1.324969         3.382651         0.193497
 H        -0.994435         2.174252        -1.089713
 H         1.885450         0.429311         2.595352
 H         2.937988         2.915641         1.607019
 H         3.510308         1.484806         0.734598
 H         1.534576         3.290287        -1.388379
 H         0.157223        -1.504027         0.423407
 H         0.298674        -0.687782        -1.209017
 H         1.752180        -1.142900        -0.524209
