19
Iteration:  1156
 C        -1.215119         2.232511         0.071733
 C         0.139516         1.760783         0.498142
 O         0.331507         1.944130         1.977672
 C         1.524098         1.084827         1.893140
 C         2.559249         2.009692         1.259579
 C         1.722471         1.918591        -0.026357
 O         1.917967         2.381914        -1.318108
 C         1.066952         0.579474         0.449098
 C         0.903226        -0.706767        -0.194891
 H        -2.115902         1.549367         0.283182
 H        -1.375261         3.232233         0.511109
 H        -1.130396         2.179222        -0.969088
 H         1.849459         0.584881         2.823135
 H         2.698883         3.009190         1.723812
 H         3.524115         1.425563         1.181457
 H         2.607589         1.847767        -1.703413
 H         0.235426        -1.332884         0.448695
 H         0.112158        -0.626121        -0.920966
 H         1.895785        -1.260490        -0.362064
