19
Iteration:   694
 C        -1.160906         2.296482         0.009143
 C         0.169073         1.740546         0.491109
 O         0.313705         1.873240         1.995730
 C         1.510127         1.089496         1.887535
 C         2.592250         2.026510         1.214376
 C         1.666678         2.004730        -0.017829
 O         1.869420         2.552611        -1.371045
 C         1.076463         0.508764         0.474779
 C         0.926388        -0.926305        -0.067066
 H        -1.984109         1.853380         0.486443
 H        -1.197512         3.386505         0.220702
 H        -1.451132         2.257849        -1.080068
 H         1.826740         0.643741         2.802113
 H         2.641995         2.915451         1.720583
 H         3.535306         1.533073         1.145608
 H         2.591604         1.973412        -1.655462
 H        -0.043762        -1.482910         0.339393
 H         0.758598        -0.753151        -1.165571
 H         1.727836        -1.647913         0.260002
