19
Iteration:  2211charge 0 multiplicity 1
 C        -1.123043         2.382456         0.026625
 C         0.148496         1.857410         0.657325
 O         0.270746         1.739954         2.107377
 C         1.514244         1.119002         1.850797
 C         2.502452         2.133980         1.163919
 C         1.632517         1.935996        -0.004243
 O         1.863063         2.330043        -1.365886
 C         1.115754         0.585590         0.435408
 C         0.973513        -0.855212        -0.209720
 H        -1.930374         2.012719         0.598181
 H        -1.064105         3.485874         0.270755
 H        -1.186851         2.230394        -1.082937
 H         1.825247         0.444628         2.542117
 H         2.554895         3.105039         1.541109
 H         3.482850         1.739046         0.896035
 H         2.674305         1.947721        -1.724733
 H         0.193037        -1.417417         0.281826
 H         0.835279        -0.806161        -1.236605
 H         1.996448        -1.406620        -0.008934
