19
Iteration:  2807
 C        -1.042168         2.131918        -0.031602
 C         0.197759         1.730043         0.510365
 O         0.355527         1.929182         1.960911
 C         1.540939         1.055592         1.871817
 C         2.502646         1.981058         1.220249
 C         1.604923         1.951070         0.024452
 O         1.887341         2.613204        -1.264328
 C         1.043676         0.474939         0.486776
 C         0.780388        -0.787440        -0.149943
 H        -1.750434         1.562030         0.528163
 H        -1.167892         3.229051         0.124231
 H        -1.130882         1.941913        -1.072998
 H         1.889678         0.538307         2.681350
 H         2.714368         3.038968         1.620490
 H         3.494225         1.592518         0.945440
 H         2.856558         2.597828        -1.313230
 H         0.124439        -1.334783         0.470173
 H         0.393458        -0.605891        -1.047008
 H         1.843918        -1.310838        -0.289973
