19
Iteration:  1721charge 0 multiplicity 1
 C        -1.035770         2.202261         0.003928
 C         0.222018         1.870963         0.580962
 O         0.363616         1.958691         2.011589
 C         1.469353         1.036039         1.863759
 C         2.519585         1.887401         1.160630
 C         1.600583         1.981829        -0.017409
 O         1.844674         2.351743        -1.314350
 C         0.923490         0.592139         0.544271
 C         0.946848        -0.679925        -0.117482
 H        -1.857330         1.831610         0.525454
 H        -1.002765         3.307582        -0.212091
 H        -1.018830         1.658348        -1.057328
 H         1.818446         0.484833         2.785116
 H         2.904233         2.864217         1.488147
 H         3.387980         1.335542         0.717358
 H         2.780483         2.413332        -1.626184
 H         0.453628        -1.461802         0.509274
 H         0.237365        -0.697350        -1.074573
 H         1.899270        -1.018011        -0.450206
