19
Iteration:  3556
 C        -1.150273         2.099168         0.084759
 C         0.248723         1.828822         0.568389
 O         0.367884         2.000551         2.051859
 C         1.467364         1.125923         1.918226
 C         2.556402         1.996917         1.295873
 C         1.712319         1.852672         0.006769
 O         1.860764         2.378436        -1.352432
 C         1.134576         0.558868         0.440336
 C         0.782357        -0.656362        -0.345490
 H        -1.869621         1.520179         0.572323
 H        -1.491510         3.039661         0.255989
 H        -1.048662         1.769526        -0.877886
 H         1.755835         0.518644         2.840211
 H         2.707995         3.042354         1.624182
 H         3.521492         1.530527         1.308238
 H         2.602419         2.196273        -1.968996
 H        -0.218326        -1.142126         0.094895
 H         0.524916        -0.412741        -1.411490
 H         1.539305        -1.422856        -0.273842
