19
Iteration:  3595
 C        -1.087897         2.316196        -0.109976
 C         0.153694         1.749596         0.638997
 O         0.351573         1.755643         2.113997
 C         1.629368         1.071783         1.862885
 C         2.520068         2.121535         1.174468
 C         1.604100         1.916084         0.015024
 O         1.836818         2.318207        -1.236818
 C         1.127243         0.634924         0.458390
 C         0.839754        -0.659518        -0.195118
 H        -2.173407         2.023606         0.175860
 H        -0.933627         3.509965        -0.127925
 H        -0.955211         2.039713        -1.287752
 H         1.854528         0.334399         2.580080
 H         2.598813         3.111110         1.638770
 H         3.479036         1.641846         0.816168
 H         2.181759         1.525173        -1.640118
 H         0.077888        -1.199901         0.222895
 H         0.388961        -0.305764        -1.115911
 H         1.728681        -1.303346        -0.440111
