19
Iteration:  1239
 C        -0.957993         2.305560        -0.022351
 C         0.281760         1.835002         0.563754
 O         0.340624         1.845210         1.994011
 C         1.500332         1.120769         1.946643
 C         2.524839         2.094337         1.196559
 C         1.637659         1.853758        -0.009859
 O         1.675457         2.387068        -1.266562
 C         1.121889         0.549666         0.465570
 C         0.851253        -0.782094        -0.177053
 H        -1.822120         1.768695         0.096217
 H        -1.129968         3.356876         0.076846
 H        -0.741254         2.291283        -1.167354
 H         1.653247         0.431400         2.879083
 H         2.661517         3.099838         1.525310
 H         3.495655         1.569856         1.091336
 H         2.383271         1.784620        -1.646293
 H         0.086987        -1.299245         0.368260
 H         0.644343        -0.657145        -1.249589
 H         1.684535        -1.415513        -0.188297
