19
Iteration:  3418charge 0 multiplicity 1
 C        -1.008729         2.403201        -0.090651
 C         0.114433         1.817193         0.685054
 O         0.386389         1.904499         2.108282
 C         1.503506         0.983684         1.807498
 C         2.550039         2.033345         1.134195
 C         1.568859         1.929239         0.023853
 O         1.758742         2.359291        -1.276284
 C         0.993948         0.610065         0.431550
 C         0.985472        -0.885079        -0.183990
 H        -1.958477         2.119106         0.363885
 H        -1.064644         3.511244         0.068969
 H        -0.987972         2.271919        -1.208960
 H         1.800297         0.350063         2.703891
 H         2.740103         2.998649         1.564683
 H         3.561004         1.634426         1.147085
 H         2.694251         2.384603        -1.445714
 H         0.559028        -1.621821         0.437578
 H         0.508383        -0.907161        -1.200327
 H         2.021148        -1.293517        -0.449139
