19
Iteration:   632
 C        -1.028307         2.161945        -0.215387
 C         0.199504         1.800981         0.624478
 O         0.369830         1.919193         2.060655
 C         1.550618         1.054422         1.945469
 C         2.605309         1.941475         1.289624
 C         1.587125         1.955119         0.010313
 O         1.669128         2.387247        -1.353676
 C         1.108414         0.582450         0.491993
 C         0.884931        -0.627879        -0.152406
 H        -1.856469         1.553030         0.107932
 H        -1.168715         3.223412        -0.209932
 H        -0.744008         1.884370        -1.259717
 H         1.816587         0.622412         2.928385
 H         2.806927         2.957850         1.814139
 H         3.579940         1.381403         1.244497
 H         2.573006         2.166620        -1.609274
 H         0.307766        -1.212327         0.412224
 H         0.209224        -0.333074        -0.984300
 H         1.650197        -1.197518        -0.700768
