19
Iteration:  1514charge 0 multiplicity 1
 C        -0.951748         2.371268        -0.100868
 C         0.234012         1.753180         0.622220
 O         0.298153         1.893296         2.015503
 C         1.567619         1.076732         1.901101
 C         2.519039         2.115537         1.192651
 C         1.669028         1.841187         0.049158
 O         1.751228         2.388045        -1.223246
 C         1.133252         0.519967         0.464278
 C         0.776024        -0.785884        -0.179318
 H        -1.835147         2.005598         0.354862
 H        -0.922553         3.453761        -0.412837
 H        -1.001850         1.838077        -1.048959
 H         1.862693         0.352789         2.806687
 H         2.573090         3.169218         1.378168
 H         3.467621         1.708625         0.835332
 H         2.394735         1.916040        -1.806935
 H         0.169400        -1.384321         0.502153
 H         0.227719        -0.587559        -1.198656
 H         1.601025        -1.307354        -0.485681
