19
Iteration:  4689charge 0 multiplicity 1
 C        -1.060807         2.270399         0.019847
 C         0.266351         1.817001         0.709593
 O         0.382727         1.787910         2.131437
 C         1.615907         1.075996         1.848200
 C         2.573860         2.065854         1.209164
 C         1.610157         2.005888         0.036913
 O         1.945839         2.267692        -1.336182
 C         1.057024         0.594711         0.329953
 C         0.618298        -0.725422        -0.317864
 H        -1.952295         1.786581         0.539406
 H        -1.440579         3.335487         0.322698
 H        -1.067743         2.119680        -1.068132
 H         1.773629         0.426651         2.704475
 H         2.664995         3.113309         1.603965
 H         3.604737         1.727417         0.892862
 H         2.189913         3.215257        -1.534960
 H        -0.073460        -1.155491         0.411643
 H         0.122968        -0.838691        -1.299785
 H         1.457858        -1.513540        -0.344188
