19
Iteration:  2053charge 0 multiplicity 1
 C        -1.082790         2.324064        -0.017277
 C         0.151301         1.736531         0.507984
 O         0.377892         1.963036         1.934863
 C         1.542047         1.110202         1.875014
 C         2.577683         2.038298         1.139655
 C         1.548222         1.992746         0.017975
 O         1.837975         2.499796        -1.222421
 C         1.019758         0.471776         0.502834
 C         0.926406        -0.983505        -0.091539
 H        -2.086268         1.788182         0.005534
 H        -1.161997         3.246263         0.565939
 H        -0.929849         2.738360        -1.031996
 H         1.833433         0.529541         2.870543
 H         2.677308         3.066532         1.670487
 H         3.522586         1.501787         0.963946
 H         2.448376         1.912725        -1.660534
 H         0.414575        -1.772654         0.502782
 H         0.458734        -0.962757        -1.189668
 H         1.870132        -1.358412        -0.332292
