19
Iteration:  2851charge 0 multiplicity 1
 C        -0.919459         2.207149        -0.222634
 C         0.236925         1.837816         0.626419
 O         0.324509         1.820825         2.023988
 C         1.534741         1.022662         1.875730
 C         2.633201         1.940323         1.179334
 C         1.589359         2.063379         0.026218
 O         1.683516         2.553572        -1.205683
 C         0.993881         0.566697         0.434923
 C         0.878439        -0.769991        -0.093547
 H        -1.769793         1.581747        -0.040381
 H        -1.209803         3.264615         0.039353
 H        -0.761040         2.235673        -1.256599
 H         1.655087         0.407958         2.718307
 H         3.066167         2.760019         1.814249
 H         3.514638         1.343371         0.914790
 H         1.996793         1.866507        -1.805730
 H         0.399977        -1.316740         0.692304
 H         0.336275        -0.901714        -0.936440
 H         1.966555        -1.268238        -0.166156
