19
Iteration:  4378
 C        -1.048224         2.372402         0.050643
 C         0.217512         1.886677         0.696325
 O         0.382539         1.817684         2.039593
 C         1.537330         1.051291         1.936824
 C         2.637693         1.971687         1.183919
 C         1.662294         1.933157        -0.053781
 O         1.821944         2.254653        -1.330774
 C         1.041837         0.589909         0.376582
 C         0.735261        -0.763382        -0.274002
 H        -1.926934         1.977666         0.507759
 H        -1.241072         3.486873         0.151798
 H        -1.024902         2.151405        -1.029719
 H         1.706886         0.357213         2.850224
 H         2.810041         2.975657         1.559789
 H         3.608928         1.511858         1.019516
 H         1.993803         3.225458        -1.482353
 H        -0.128058        -1.181841         0.399828
 H         0.467231        -0.588198        -1.352830
 H         1.757379        -1.218092         0.014361
