19
Iteration:  3599
 C        -1.093969         2.337356        -0.142869
 C         0.139797         1.753199         0.676971
 O         0.351344         1.748128         2.101755
 C         1.620814         1.064745         1.885995
 C         2.533298         2.094109         1.158731
 C         1.569618         1.905706         0.013626
 O         1.836091         2.343308        -1.262687
 C         1.128601         0.648966         0.453389
 C         0.879564        -0.674196        -0.192392
 H        -2.112138         2.155866         0.107629
 H        -0.964195         3.510862        -0.018032
 H        -0.861987         1.968867        -1.109821
 H         1.923014         0.367780         2.742670
 H         2.646694         3.097225         1.663349
 H         3.490251         1.649426         0.903706
 H         2.227120         1.563708        -1.758634
 H        -0.029620        -1.325998         0.277553
 H         0.289951        -0.367202        -1.089823
 H         1.756102        -1.276051        -0.396312
