19
Iteration:   591charge 0 multiplicity 1
 C        -1.046194         2.274469        -0.025536
 C         0.212448         1.780224         0.635210
 O         0.338073         1.854155         2.054127
 C         1.548578         1.175965         1.932247
 C         2.457833         2.113861         1.212446
 C         1.689420         1.891519        -0.019789
 O         1.909655         2.389659        -1.337114
 C         1.094331         0.541538         0.503291
 C         0.783628        -0.831459        -0.280980
 H        -1.939717         1.588598         0.247575
 H        -1.392437         3.295817         0.273451
 H        -0.957483         2.189598        -1.128245
 H         1.852930         0.685989         3.017062
 H         2.239297         3.069104         1.709488
 H         3.509216         1.939716         1.096971
 H         2.504784         1.803836        -1.887837
 H         0.138670        -1.577206         0.433537
 H         0.181505        -0.662068        -1.183001
 H         1.720343        -1.217855        -0.551861
