19
Iteration:  4976charge 0 multiplicity 1
 C        -1.119233         2.468626         0.034565
 C         0.177114         1.890615         0.686618
 O         0.418395         1.730794         2.107678
 C         1.577726         0.967638         1.812356
 C         2.544246         2.038512         1.175568
 C         1.677482         1.896112         0.018138
 O         1.824844         2.291475        -1.370922
 C         1.004734         0.557971         0.436483
 C         0.850808        -0.738173        -0.243693
 H        -1.945753         2.037517         0.553112
 H        -1.192917         3.558419         0.226695
 H        -1.244228         2.224069        -1.056988
 H         2.071647         0.332301         2.522653
 H         2.724017         3.003099         1.626074
 H         3.531982         1.577655         1.021371
 H         1.854858         3.250859        -1.291925
 H         0.055293        -1.376535         0.234017
 H         0.516739        -0.413520        -1.212306
 H         1.880452        -1.172532        -0.469809
