19
Iteration:  2036
 C        -1.065622         2.297867        -0.029736
 C         0.208113         1.826057         0.606480
 O         0.299804         2.084320         2.016188
 C         1.543696         1.043707         1.835352
 C         2.555833         1.902930         1.139402
 C         1.631120         1.806460        -0.043803
 O         1.786607         2.545998        -1.251662
 C         0.934160         0.502148         0.487033
 C         1.027518        -0.876258        -0.106833
 H        -1.725150         1.485093         0.102596
 H        -1.464168         3.197322         0.466973
 H        -1.006654         2.446399        -1.176382
 H         1.554864         0.532987         2.787998
 H         2.829288         2.833635         1.540995
 H         3.477593         1.322791         0.942833
 H         2.337595         2.161962        -1.940454
 H         0.404503        -1.562793         0.470403
 H         0.747203        -0.872448        -1.094210
 H         2.133340        -1.283251        -0.005661
