19
Iteration:  3281
 C        -0.981818         2.270617        -0.110449
 C         0.224253         1.719095         0.551657
 O         0.344092         1.992998         1.964234
 C         1.584636         1.034641         1.842576
 C         2.605078         1.973439         1.228111
 C         1.616322         1.872475        -0.001997
 O         1.701121         2.494022        -1.210075
 C         1.119893         0.545351         0.482242
 C         0.753582        -0.812271        -0.094695
 H        -1.892470         1.510063        -0.066211
 H        -1.231331         3.308447         0.227657
 H        -0.572570         2.426945        -1.140531
 H         1.799175         0.320010         2.587343
 H         2.493433         2.930383         1.780198
 H         3.672207         1.792291         1.152886
 H         2.601670         2.382294        -1.612112
 H         0.105691        -1.366573         0.568288
 H         0.387750        -0.576199        -1.030094
 H         1.540593        -1.388152        -0.321585
