19
Iteration:  1409
 C        -0.959293         2.270021         0.030560
 C         0.270018         1.813573         0.524040
 O         0.317123         1.875834         1.995481
 C         1.460447         1.117071         1.895691
 C         2.545857         2.136359         1.188634
 C         1.692271         1.841585         0.001718
 O         1.811029         2.317118        -1.297058
 C         1.056850         0.555605         0.420239
 C         0.829751        -0.731135        -0.181535
 H        -1.908178         1.620006         0.349655
 H        -1.234983         3.146956         0.685080
 H        -1.184313         2.513155        -0.962693
 H         1.521755         0.592179         2.768032
 H         2.462149         3.099916         1.778641
 H         3.577017         1.760824         1.136110
 H         2.491120         1.749291        -1.765669
 H        -0.007765        -1.155915         0.388386
 H         0.449756        -0.644214        -1.117011
 H         1.731414        -1.438078        -0.014321
