19
Iteration:  3401
 C        -1.171985         2.371300         0.000290
 C         0.188165         1.828269         0.563700
 O         0.358517         1.936632         2.019121
 C         1.545507         1.065222         1.901906
 C         2.605041         1.885424         1.248645
 C         1.560857         1.952444         0.010595
 O         1.780752         2.404793        -1.345539
 C         1.008454         0.510937         0.509454
 C         1.001611        -0.756241        -0.207492
 H        -2.070568         1.856214         0.400149
 H        -1.202200         3.451989        -0.122546
 H        -1.017017         2.096057        -1.031215
 H         1.704985         0.439469         2.723816
 H         3.008222         2.728713         1.910805
 H         3.388233         1.280340         0.735492
 H         2.682238         2.172589        -1.592035
 H         0.486148        -1.575541         0.457835
 H         0.622990        -0.640939        -1.217708
 H         2.004224        -1.185078        -0.384675
