19
Iteration:  2865
 C        -0.970596         2.300511        -0.127425
 C         0.176572         1.747781         0.575866
 O         0.290976         1.847978         2.041420
 C         1.538595         0.991539         1.865395
 C         2.566814         1.945574         1.257958
 C         1.634954         1.956173         0.032917
 O         1.684885         2.530328        -1.328451
 C         1.144437         0.620734         0.478304
 C         0.911626        -0.742686        -0.068453
 H        -1.869385         1.675258        -0.133833
 H        -1.113132         3.362096         0.146805
 H        -0.591876         2.332555        -1.175209
 H         1.834912         0.255089         2.765280
 H         2.686432         3.000609         1.741160
 H         3.464748         1.343528         0.878806
 H         2.138526         1.869248        -1.902434
 H         0.348621        -1.522094         0.499883
 H         0.310765        -0.544767        -1.073041
 H         1.836661        -1.283549        -0.343335
