19
Iteration:  1311
 C        -1.147716         2.268741         0.011420
 C         0.102981         1.799147         0.577032
 O         0.332209         1.996096         1.976079
 C         1.485193         1.091094         1.839384
 C         2.632760         1.914715         1.250523
 C         1.722039         1.869112        -0.052530
 O         1.830534         2.526390        -1.302114
 C         1.050768         0.569002         0.444607
 C         0.924315        -0.871364        -0.098889
 H        -2.098306         1.890352         0.651555
 H        -1.163182         3.398858        -0.127291
 H        -1.294369         1.926766        -0.971280
 H         1.694485         0.500814         2.650259
 H         2.910734         2.902243         1.742646
 H         3.515979         1.291920         1.118702
 H         2.634969         2.221562        -1.816237
 H         0.233215        -1.421764         0.592933
 H         0.493096        -0.927911        -1.154792
 H         1.918479        -1.448371        -0.150724
