19
Iteration:  3169
 C        -1.015048         2.328893        -0.015304
 C         0.180618         1.735251         0.641664
 O         0.290610         1.872205         2.060775
 C         1.513360         1.104496         1.918878
 C         2.556505         2.131768         1.180632
 C         1.604508         1.881010         0.039686
 O         1.802941         2.205151        -1.265153
 C         1.070109         0.596911         0.469708
 C         0.912259        -0.669967        -0.334609
 H        -1.926298         1.977716         0.510731
 H        -0.793977         3.477395         0.028356
 H        -1.150549         2.050613        -1.160870
 H         2.056830         0.610849         2.848623
 H         2.499881         3.173561         1.502332
 H         3.450666         1.488472         1.079778
 H         2.627430         1.993729        -1.679734
 H         0.024773        -1.221285         0.017773
 H         0.872489        -0.328863        -1.351828
 H         1.662850        -1.397722        -0.345724
