19
Iteration:  2069
 C        -1.076284         2.402850        -0.039415
 C         0.181405         1.713794         0.582779
 O         0.308814         1.807377         1.990145
 C         1.577547         1.082079         1.867719
 C         2.480243         2.133132         1.212212
 C         1.616994         1.916663        -0.041640
 O         1.833997         2.429783        -1.319468
 C         1.149069         0.510102         0.438193
 C         0.869365        -0.833782        -0.073456
 H        -1.877124         1.725008         0.098514
 H        -1.337416         3.320289         0.542047
 H        -0.934091         2.598000        -1.146597
 H         1.869856         0.555052         2.782530
 H         2.659585         3.065927         1.654689
 H         3.417658         1.696678         0.859536
 H         2.716586         2.088378        -1.532537
 H         0.376313        -1.288641         0.781731
 H         0.146929        -0.811417        -0.782773
 H         1.789527        -1.474563        -0.369411
