19
Iteration:  1841
 C        -0.938061         2.337583        -0.071806
 C         0.263546         1.837498         0.620574
 O         0.290350         1.869842         2.030330
 C         1.574428         1.105011         1.915211
 C         2.489445         2.057819         1.213436
 C         1.637292         1.866172        -0.053753
 O         1.728243         2.446726        -1.327578
 C         1.101088         0.539943         0.413548
 C         0.813830        -0.905812        -0.071686
 H        -1.701014         1.618306        -0.078511
 H        -1.243968         3.281300         0.488264
 H        -0.663102         2.612284        -1.192093
 H         1.750810         0.559401         2.830072
 H         2.721408         3.120075         1.424807
 H         3.433523         1.440473         0.937320
 H         2.643970         2.349167        -1.612927
 H        -0.055029        -1.241120         0.517432
 H         0.508453        -0.947970        -1.157605
 H         1.697830        -1.545444        -0.006187
