19
Iteration:  2760
 C        -1.134032         2.167526        -0.003167
 C         0.147594         1.824897         0.581935
 O         0.305966         1.775682         2.098659
 C         1.563008         1.025101         1.833403
 C         2.462028         2.117802         1.197961
 C         1.698227         1.951929        -0.012225
 O         1.940001         2.364825        -1.339825
 C         1.089088         0.671354         0.460901
 C         0.834266        -0.656725        -0.206139
 H        -1.905134         1.615992         0.630828
 H        -1.154661         3.238962         0.054958
 H        -1.266885         1.935203        -1.141280
 H         1.941132         0.379451         2.713403
 H         2.435040         2.935126         1.906812
 H         3.481630         1.710747         1.252027
 H         2.758562         1.906421        -1.577573
 H        -0.038855        -1.200332         0.204037
 H         0.740035        -0.420345        -1.279534
 H         1.845875        -1.201997        -0.158519
