19
Iteration:  1815charge 0 multiplicity 1
 C        -1.063595         2.369943        -0.102262
 C         0.168914         1.737430         0.571240
 O         0.330296         1.753824         2.078991
 C         1.645476         1.052967         1.854316
 C         2.534314         2.226396         1.235721
 C         1.674602         1.915389        -0.017873
 O         1.806819         2.249856        -1.332760
 C         1.066735         0.634991         0.448374
 C         0.774284        -0.724269        -0.094369
 H        -2.059608         1.820042        -0.065045
 H        -1.100290         3.277336         0.418070
 H        -0.789293         2.621684        -1.156392
 H         2.014195         0.276244         2.614129
 H         2.547637         3.183485         1.852528
 H         3.550050         1.817721         0.966020
 H         2.670771         1.905561        -1.616415
 H        -0.173641        -0.976477         0.374317
 H         0.567114        -0.692833        -1.104708
 H         1.662839        -1.483864         0.016558
