19
Iteration:  2518charge 0 multiplicity 1
 C        -1.033570         2.238147         0.037960
 C         0.196671         1.753847         0.611561
 O         0.336434         1.871125         2.045003
 C         1.513465         1.137686         1.956997
 C         2.501322         2.106229         1.260774
 C         1.578318         1.959223        -0.017096
 O         1.866681         2.430563        -1.354440
 C         1.067514         0.514534         0.407715
 C         0.903768        -0.827228        -0.303256
 H        -1.860261         1.612346         0.447697
 H        -1.249753         3.211535         0.520105
 H        -1.166926         2.343779        -0.984743
 H         1.750282         0.778911         2.946974
 H         2.584558         3.159939         1.688319
 H         3.557216         1.675141         1.167397
 H         2.485551         1.730371        -1.701863
 H         0.153283        -1.513564         0.100628
 H         0.655996        -0.525843        -1.285027
 H         1.804937        -1.516948        -0.425906
