19
Iteration:  4921charge 0 multiplicity 1
 C        -1.162490         2.165458         0.061700
 C         0.280615         1.864135         0.596484
 O         0.436119         1.911194         2.045367
 C         1.558441         1.000419         1.883658
 C         2.708035         1.985443         1.203278
 C         1.730578         1.881684        -0.002318
 O         1.852140         2.406143        -1.317200
 C         1.020414         0.554462         0.448943
 C         0.624164        -0.686860        -0.291772
 H        -1.789358         1.488859         0.594381
 H        -1.529694         3.137524         0.445247
 H        -1.164996         2.117803        -1.052156
 H         1.689939         0.354496         2.755441
 H         2.707325         2.890407         1.802331
 H         3.709373         1.698606         0.826669
 H         1.583006         3.345318        -1.211939
 H        -0.220141        -1.285371        -0.070983
 H         0.505525        -0.254896        -1.257026
 H         1.487850        -1.382978        -0.303672
