19
Iteration:  4584charge 0 multiplicity 1
 C        -1.059648         2.422813         0.073149
 C         0.197470         1.826851         0.657774
 O         0.345572         1.918560         2.049047
 C         1.513386         0.968719         1.846918
 C         2.745822         1.956866         1.097521
 C         1.634296         1.955360         0.076182
 O         1.822022         2.329018        -1.268803
 C         0.930189         0.545155         0.446253
 C         0.860638        -0.790949        -0.258293
 H        -2.011668         1.931755         0.194258
 H        -1.170783         3.535141        -0.017307
 H        -0.997735         2.266670        -1.104551
 H         1.791121         0.306983         2.770774
 H         3.113911         2.849776         1.701092
 H         3.579398         1.286073         0.713849
 H         1.281207         3.008511        -1.729821
 H         0.040454        -1.367331         0.278370
 H         0.689257        -0.649828        -1.377088
 H         1.835502        -1.381477        -0.198980
