19
Iteration:  1561charge 0 multiplicity 1
 C        -1.099633         2.183953        -0.025760
 C         0.225902         1.861571         0.613819
 O         0.341319         1.885077         2.051330
 C         1.457786         1.033000         1.844371
 C         2.603130         2.096101         1.183219
 C         1.617478         1.985549         0.001294
 O         1.896097         2.258009        -1.274478
 C         1.112777         0.612250         0.440574
 C         0.805618        -0.658116        -0.191799
 H        -2.033522         1.643511         0.436406
 H        -1.160671         3.304415         0.063492
 H        -1.130508         2.077005        -1.032826
 H         1.757981         0.398925         2.658164
 H         2.657502         3.088858         1.749717
 H         3.540713         1.557986         1.075295
 H         2.487766         1.567775        -1.669286
 H         0.095895        -1.138755         0.470229
 H         0.339034        -0.429151        -1.095917
 H         1.669003        -1.360312        -0.491577
