19
Iteration:  2125
 C        -1.034864         2.091409        -0.174861
 C         0.225555         1.702462         0.621424
 O         0.385340         1.941533         2.040412
 C         1.571928         1.083849         1.881299
 C         2.580983         2.061554         1.172759
 C         1.617647         1.976365         0.030604
 O         1.776875         2.421112        -1.246983
 C         1.135447         0.531447         0.547789
 C         0.715798        -0.698456        -0.180406
 H        -1.914026         1.570034         0.205117
 H        -1.275564         3.203268        -0.039793
 H        -1.034268         1.911023        -1.231459
 H         1.909129         0.658850         2.741322
 H         2.660064         2.970742         1.680520
 H         3.531786         1.682063         0.790233
 H         2.706682         2.641727        -1.389658
 H        -0.070590        -1.232526         0.315491
 H         0.360111        -0.319611        -1.052335
 H         1.477848        -1.503003        -0.510789
