19
Iteration:  1786
 C        -1.036222         2.214818         0.049051
 C         0.264610         1.853921         0.565401
 O         0.280977         1.931956         2.065641
 C         1.538782         1.090585         1.936245
 C         2.501569         2.119609         1.187977
 C         1.665840         1.918184        -0.016712
 O         1.892113         2.305920        -1.344453
 C         1.039982         0.562030         0.508589
 C         0.840076        -0.769658        -0.241307
 H        -1.881145         1.698695         0.393189
 H        -1.224023         3.307095         0.260001
 H        -0.926229         2.253956        -1.169783
 H         1.693232         0.413614         2.802242
 H         2.741730         3.055448         1.718870
 H         3.518882         1.613756         0.863293
 H         2.159180         1.537860        -1.842736
 H        -0.091691        -1.257820         0.129414
 H         0.497456        -0.429376        -1.280203
 H         1.665596        -1.500240        -0.298991
