19
Iteration:  4470
 C        -1.070484         2.287052         0.016508
 C         0.220827         1.893670         0.641260
 O         0.472679         1.977900         2.015345
 C         1.557088         1.051351         1.938790
 C         2.635306         1.808070         1.210198
 C         1.579213         1.920784        -0.029704
 O         1.855275         2.414726        -1.266806
 C         1.016455         0.597678         0.396816
 C         0.734737        -0.771283        -0.284049
 H        -1.741062         1.427132         0.325485
 H        -1.374083         3.326839         0.183418
 H        -0.782590         2.232073        -1.011328
 H         1.549966         0.534535         2.846003
 H         3.048143         2.675772         1.725623
 H         3.405354         1.082384         0.939149
 H         1.180047         3.035621        -1.559371
 H         0.260322        -1.470559         0.446722
 H         0.025487        -0.867026        -1.130892
 H         1.809272        -1.331154        -0.438895
