19
Iteration:  2909
 C        -1.085531         2.383047         0.092899
 C         0.178166         1.749609         0.604286
 O         0.315464         1.892608         2.001161
 C         1.541878         1.078095         1.834772
 C         2.467061         2.169044         1.184476
 C         1.538733         1.874511        -0.016990
 O         1.923982         2.268537        -1.286359
 C         1.052593         0.488778         0.507272
 C         0.967621        -0.766311        -0.311210
 H        -1.889982         1.759706         0.508863
 H        -1.186002         3.348732         0.613182
 H        -1.143395         2.478911        -1.021511
 H         1.750263         0.448332         2.873571
 H         2.324114         3.204421         1.750491
 H         3.528337         1.726982         1.017284
 H         2.902243         2.260924        -1.348496
 H         0.133001        -1.364985         0.152903
 H         0.647989        -0.438392        -1.391970
 H         1.869578        -1.362166        -0.360636
