19
Iteration:  3354charge 0 multiplicity 1
 C        -1.218413         2.135540        -0.011632
 C         0.213067         1.908561         0.674486
 O         0.416740         2.000060         2.051901
 C         1.575070         1.049926         1.918391
 C         2.530726         1.971529         1.252982
 C         1.604723         1.970132         0.037097
 O         1.961689         2.356393        -1.328216
 C         0.990914         0.593309         0.433096
 C         0.846279        -0.731275        -0.332853
 H        -1.818301         1.537659         0.539697
 H        -1.522176         3.170939         0.030282
 H        -1.236131         1.913113        -1.094021
 H         1.775980         0.598255         2.925980
 H         2.720300         2.948049         1.739269
 H         3.495790         1.392164         1.077718
 H         2.094603         1.579673        -1.874066
 H        -0.029646        -1.314715         0.093529
 H         0.878390        -0.440641        -1.433453
 H         1.779173        -1.480235        -0.258613
