19
Iteration:  2201
 C        -1.141835         2.326075         0.027603
 C         0.173758         1.839952         0.585063
 O         0.281023         1.779198         2.130414
 C         1.556965         1.043357         1.813601
 C         2.540302         2.085617         1.204033
 C         1.594968         1.980182        -0.034743
 O         1.872237         2.362626        -1.342122
 C         1.062583         0.624533         0.375698
 C         0.987846        -0.754287        -0.147807
 H        -1.988997         1.888695         0.554075
 H        -1.282984         3.449862         0.031321
 H        -1.347945         2.028185        -0.998978
 H         1.875695         0.327762         2.497756
 H         2.785629         3.002952         1.616167
 H         3.440612         1.484419         1.081791
 H         2.523303         1.693988        -1.658084
 H         0.126808        -1.231048         0.287197
 H         0.899858        -0.920831        -1.138972
 H         1.913029        -1.364534         0.213516
