19
Iteration:  4975charge 0 multiplicity 1
 C        -1.121099         2.465478         0.036734
 C         0.175833         1.892773         0.685446
 O         0.416041         1.722435         2.106756
 C         1.576374         0.973680         1.806436
 C         2.555778         2.053056         1.172667
 C         1.674542         1.903272         0.026341
 O         1.831237         2.287947        -1.367548
 C         0.994025         0.554609         0.438692
 C         0.850125        -0.741050        -0.250762
 H        -1.927666         2.060391         0.566358
 H        -1.213520         3.539695         0.231417
 H        -1.196362         2.199178        -1.053361
 H         2.086074         0.316676         2.500874
 H         2.747650         3.019656         1.594000
 H         3.543209         1.569693         1.039435
 H         1.863566         3.260061        -1.300815
 H         0.008873        -1.401532         0.266851
 H         0.495958        -0.408934        -1.234251
 H         1.867155        -1.189338        -0.443146
