19
Iteration:  3329
 C        -1.090793         2.161513        -0.043449
 C         0.174453         1.771321         0.679745
 O         0.296984         1.839272         2.092890
 C         1.607448         1.037796         1.805443
 C         2.579397         2.185528         1.165783
 C         1.615352         1.933930         0.012026
 O         1.941523         2.294418        -1.284449
 C         1.089868         0.628267         0.478820
 C         0.714911        -0.619964        -0.243259
 H        -1.898528         1.536238         0.373784
 H        -1.279217         3.218111         0.165767
 H        -0.966208         2.151433        -1.120004
 H         1.876425         0.393274         2.705259
 H         2.752367         3.143817         1.662856
 H         3.538079         1.663682         1.031075
 H         2.547710         1.765783        -1.789722
 H        -0.144478        -0.941517         0.260413
 H         0.728474        -0.353220        -1.340463
 H         1.437585        -1.528555        -0.160275
