19
Iteration:  4137charge 0 multiplicity 1
 C        -1.108618         2.332547         0.170614
 C         0.162617         1.819233         0.728822
 O         0.330431         1.917079         2.067037
 C         1.533702         1.061102         1.868186
 C         2.630551         1.984974         1.207363
 C         1.682327         1.867632         0.029199
 O         2.009722         2.228761        -1.410473
 C         1.038182         0.571553         0.391172
 C         0.785908        -0.676050        -0.368290
 H        -1.999928         1.830938         0.461094
 H        -1.421119         3.440492         0.352389
 H        -1.185632         2.508081        -0.951753
 H         1.789846         0.504542         2.737286
 H         2.706839         2.962841         1.716909
 H         3.627271         1.462214         1.085145
 H         1.102154         2.517189        -1.585375
 H        -0.095018        -1.105607         0.018049
 H         0.410940        -0.343194        -1.300537
 H         1.637854        -1.284011        -0.382788
