19
Iteration:   895
 C        -1.065571         2.241699        -0.151395
 C         0.147785         1.770212         0.653288
 O         0.370661         1.876783         2.090679
 C         1.522044         1.101780         1.868793
 C         2.634124         1.971971         1.222742
 C         1.658320         1.854035        -0.002722
 O         1.714919         2.548166        -1.353112
 C         1.005907         0.569570         0.443642
 C         0.945531        -0.791949        -0.121269
 H        -2.161907         1.931554         0.129964
 H        -1.109266         3.345057        -0.027193
 H        -0.853880         2.006119        -1.180289
 H         1.885978         0.572664         2.791122
 H         2.732959         2.964724         1.704175
 H         3.530832         1.363010         1.368663
 H         2.582829         2.290668        -1.751022
 H         0.012617        -1.255800         0.245690
 H         0.714071        -0.763678        -1.259649
 H         1.808629        -1.487600         0.201443
