19
Iteration:  3339
 C        -1.157206         2.154655        -0.028400
 C         0.130849         1.768347         0.553406
 O         0.431251         1.877603         2.107276
 C         1.570527         1.053300         1.898005
 C         2.559635         2.076465         1.207654
 C         1.603529         1.982475        -0.025181
 O         1.975036         2.331693        -1.301103
 C         1.065289         0.612225         0.514346
 C         0.761836        -0.602270        -0.245710
 H        -2.077570         1.522881         0.263641
 H        -1.324030         3.229749         0.170077
 H        -1.090308         1.932053        -1.095812
 H         1.882293         0.341107         2.710747
 H         2.525159         2.990633         1.783958
 H         3.526726         1.730974         0.850044
 H         2.302435         1.488416        -1.650642
 H        -0.167580        -1.049937        -0.035640
 H         0.636836        -0.401456        -1.325480
 H         1.576053        -1.301623        -0.072750
