19
Iteration:  2269
 C        -0.969711         2.373797        -0.176632
 C         0.174477         1.857270         0.645408
 O         0.293499         1.837258         2.096738
 C         1.579127         1.121030         1.919552
 C         2.581598         2.003095         1.251916
 C         1.633708         1.877976         0.034262
 O         1.582894         2.365293        -1.328804
 C         1.039218         0.597222         0.519558
 C         1.023654        -0.781160        -0.260416
 H        -1.775110         1.511102        -0.098792
 H        -1.377099         3.354850         0.255324
 H        -0.712921         2.578486        -1.202493
 H         1.883438         0.362509         2.779449
 H         2.878372         2.993335         1.625878
 H         3.457630         1.394605         1.073096
 H         2.355809         1.887071        -1.737618
 H         0.787099        -1.580963         0.464134
 H         0.312138        -0.940641        -1.091345
 H         2.104782        -1.018545        -0.571838
