19
Iteration:  2066charge 0 multiplicity 1
 C        -1.089214         2.412480        -0.032975
 C         0.175627         1.696627         0.568281
 O         0.345299         1.826291         1.977648
 C         1.573504         1.096565         1.855378
 C         2.477414         2.118173         1.203431
 C         1.607423         1.954068        -0.030989
 O         1.835536         2.439642        -1.293717
 C         1.118933         0.489200         0.452374
 C         0.899075        -0.874004        -0.081842
 H        -1.926301         1.706669         0.086945
 H        -1.295124         3.248144         0.547728
 H        -0.917869         2.611816        -1.203728
 H         1.735906         0.573939         2.940419
 H         2.755808         3.122604         1.627422
 H         3.402339         1.671877         0.862992
 H         2.708808         2.043534        -1.586700
 H         0.347384        -1.347378         0.754725
 H         0.086176        -0.799598        -0.869326
 H         1.751075        -1.435511        -0.331396
