19
Iteration:  3811
 C        -1.168808         2.308139         0.035747
 C         0.175112         1.843908         0.594466
 O         0.311661         1.895615         2.050818
 C         1.579767         1.051018         1.862044
 C         2.655741         1.911168         1.208498
 C         1.673161         1.893059        -0.047630
 O         1.857200         2.437833        -1.356903
 C         0.940204         0.575880         0.397941
 C         0.940832        -0.814269        -0.151204
 H        -2.005933         1.761794         0.537830
 H        -1.491388         3.347116         0.158054
 H        -1.122593         2.112639        -1.119417
 H         1.731773         0.532682         2.787256
 H         2.736031         2.868279         1.679477
 H         3.656488         1.416316         1.249438
 H         2.357857         3.296502        -1.400068
 H         0.298703        -1.534688         0.395211
 H         0.353187        -0.862334        -1.068100
 H         1.927989        -1.133864        -0.146352
