19
Iteration:  2065
 C        -1.090797         2.411225        -0.034852
 C         0.173215         1.693053         0.560999
 O         0.357422         1.833886         1.973668
 C         1.572018         1.099952         1.855050
 C         2.478329         2.112385         1.198386
 C         1.601858         1.966565        -0.025379
 O         1.837200         2.442766        -1.284722
 C         1.108297         0.484827         0.457290
 C         0.907855        -0.888165        -0.083203
 H        -1.956886         1.696337         0.078894
 H        -1.280356         3.253744         0.563768
 H        -0.919308         2.613504        -1.175229
 H         1.688557         0.595475         2.953169
 H         2.779152         3.143476         1.622141
 H         3.416230         1.653467         0.871462
 H         2.688034         2.036698        -1.606396
 H         0.340017        -1.381720         0.744112
 H         0.069777        -0.798983        -0.913486
 H         1.746988        -1.427978        -0.324989
