19
Iteration:  4051
 C        -0.972361         2.428496        -0.047431
 C         0.208316         1.831564         0.661076
 O         0.360607         1.915842         2.059001
 C         1.560984         0.985555         1.833758
 C         2.575646         1.865926         1.140050
 C         1.593051         1.877766         0.032455
 O         1.699627         2.515653        -1.304247
 C         1.062700         0.508157         0.415430
 C         0.802337        -0.780766        -0.123238
 H        -1.835509         1.800197         0.230847
 H        -1.049310         3.485362         0.184159
 H        -0.599368         2.086576        -1.056808
 H         1.839718         0.295663         2.585814
 H         2.745607         2.782526         1.777629
 H         3.503856         1.312711         0.761219
 H         2.686859         2.597375        -1.445279
 H         0.251095        -1.523883         0.498483
 H         0.374915        -0.683643        -1.145409
 H         1.835470        -1.282702        -0.428882
