19
Iteration:  2573
 C        -0.958891         2.036709        -0.175264
 C         0.196401         1.878467         0.729712
 O         0.304644         1.938803         2.175945
 C         1.563945         1.036869         1.875781
 C         2.608514         1.925242         1.203236
 C         1.539675         2.038150         0.035146
 O         1.716307         2.492919        -1.340441
 C         1.088850         0.612288         0.459414
 C         0.845229        -0.697233        -0.217863
 H        -1.817604         1.355458         0.102205
 H        -1.175332         3.076726        -0.405117
 H        -0.765262         1.691544        -1.166968
 H         1.736186         0.548693         2.876120
 H         3.202713         2.801623         1.656162
 H         3.416464         1.158967         0.877637
 H         2.536980         2.124189        -1.747644
 H        -0.040806        -1.314708         0.050040
 H         0.805556        -0.640260        -1.277324
 H         1.845839        -1.291641        -0.262032
