19
Iteration:  4576charge 0 multiplicity 1
 C        -1.053960         2.427176         0.045432
 C         0.158482         1.800206         0.662350
 O         0.354508         1.929708         2.094717
 C         1.523075         0.937241         1.878293
 C         2.649039         1.955652         1.164518
 C         1.632165         1.971273         0.005932
 O         1.844365         2.286145        -1.350867
 C         1.010872         0.584923         0.436916
 C         0.867958        -0.794528        -0.281585
 H        -2.032451         2.045067         0.452512
 H        -0.942078         3.511008         0.382791
 H        -0.979248         2.148278        -0.994006
 H         1.654988         0.394210         2.829120
 H         3.136556         2.852742         1.668251
 H         3.493399         1.475267         0.704250
 H         1.313020         3.080716        -1.566771
 H        -0.030688        -1.261539         0.225239
 H         0.786382        -0.518146        -1.307358
 H         1.665671        -1.403544        -0.256270
