19
Iteration:  4405
 C        -0.990726         2.388101        -0.006130
 C         0.219817         1.780067         0.602722
 O         0.379301         1.806809         2.084301
 C         1.601164         0.996333         1.774032
 C         2.560340         2.005681         1.223054
 C         1.621914         1.948749        -0.067600
 O         1.855007         2.331186        -1.335120
 C         1.091365         0.548946         0.419259
 C         0.666099        -0.733761        -0.108204
 H        -1.962258         2.154489         0.569115
 H        -1.089367         3.440995         0.223256
 H        -1.141556         2.134013        -1.068276
 H         1.892616         0.182958         2.404302
 H         2.624184         2.949280         1.809499
 H         3.596575         1.639939         1.065097
 H         1.914681         3.328031        -1.393564
 H        -0.014146        -1.158630         0.531342
 H         0.300742        -0.486025        -1.079132
 H         1.592017        -1.246805        -0.118085
