19
Iteration:  1989
 C        -1.063518         2.268267        -0.096480
 C         0.166620         1.824398         0.674376
 O         0.311384         1.929826         2.060088
 C         1.589507         1.070721         1.880523
 C         2.640591         1.996067         1.176201
 C         1.549794         2.006003         0.055214
 O         1.744366         2.294730        -1.307197
 C         1.067598         0.614622         0.497302
 C         0.913975        -0.745881        -0.233165
 H        -2.062236         1.865657         0.259263
 H        -1.028972         3.319622        -0.161558
 H        -0.900046         1.861093        -1.177547
 H         1.884266         0.398668         2.824167
 H         2.892130         2.944151         1.684511
 H         3.545389         1.498168         0.912030
 H         2.445218         1.661692        -1.516054
 H        -0.010589        -1.275594         0.057009
 H         0.893905        -0.463826        -1.311813
 H         1.761560        -1.437964        -0.077606
