19
Iteration:    46charge 0 multiplicity 1
 C        -1.039856         2.447257        -0.039356
 C         0.096818         1.720834         0.618845
 O         0.307527         1.810693         2.122705
 C         1.558595         1.067708         1.916934
 C         2.468764         2.190017         1.194259
 C         1.660891         1.836147        -0.021199
 O         1.849356         2.245642        -1.389347
 C         1.112763         0.573560         0.515959
 C         0.949574        -0.693120        -0.237069
 H        -1.973899         2.050292         0.357161
 H        -0.955920         3.529769         0.167114
 H        -0.861159         2.202352        -1.145689
 H         1.885341         0.650640         2.776327
 H         2.406057         3.151274         1.632593
 H         3.465997         1.848995         1.198525
 H         2.189416         1.472377        -1.864007
 H         0.393773        -1.435292         0.429061
 H         0.224776        -0.490851        -1.011900
 H         1.720343        -1.227066        -0.670011
