19
Iteration:   413
 C        -1.107785         2.130866         0.005270
 C         0.209743         1.784473         0.592904
 O         0.303991         1.997052         1.987457
 C         1.509044         1.063759         1.864766
 C         2.503790         2.027073         1.090309
 C         1.608511         1.876563        -0.054401
 O         1.998019         2.500810        -1.240025
 C         1.019751         0.554281         0.532199
 C         0.853578        -0.746048        -0.138790
 H        -1.834578         1.666809         0.606448
 H        -1.146888         3.167007         0.302340
 H        -1.120016         1.946109        -1.072123
 H         1.645724         0.474051         2.713702
 H         2.786372         2.935944         1.514592
 H         3.308982         1.359763         0.984225
 H         2.638585         1.931110        -1.758515
 H         0.553434        -1.595342         0.508188
 H         0.173903        -0.604192        -1.016321
 H         1.698858        -1.157933        -0.468082
