19
Iteration:  2307charge 0 multiplicity 1
 C        -1.154448         2.117008        -0.061758
 C         0.147065         1.862584         0.656239
 O         0.346353         1.955899         2.034460
 C         1.593040         1.044921         1.875534
 C         2.583492         1.946376         1.173271
 C         1.555851         1.994167        -0.024184
 O         1.931628         2.494386        -1.230259
 C         0.993265         0.616664         0.412828
 C         0.947837        -0.768720        -0.154522
 H        -1.901574         1.392359         0.131150
 H        -1.607825         3.011682         0.330200
 H        -1.058447         2.209524        -1.186515
 H         1.655459         0.417835         2.708846
 H         3.053562         2.741464         1.806248
 H         3.365839         1.253010         0.752578
 H         1.959563         1.868729        -1.980816
 H         0.461337        -1.471046         0.549839
 H         0.425547        -0.832208        -1.186689
 H         1.904538        -1.166969        -0.334585
