19
Iteration:  1950
 C        -1.012723         2.287939         0.077282
 C         0.245512         1.713073         0.618648
 O         0.262986         1.910878         1.995659
 C         1.581802         1.124002         1.902538
 C         2.518854         2.253985         1.272936
 C         1.703391         1.870322         0.030219
 O         1.843290         2.297818        -1.355350
 C         1.131188         0.444615         0.510915
 C         0.732707        -0.750045        -0.331163
 H        -1.820001         2.110599         0.697145
 H        -1.031324         3.414561        -0.161071
 H        -1.105914         1.781877        -0.920908
 H         1.796994         0.668378         2.800062
 H         2.295847         3.242315         1.727215
 H         3.672651         2.124161         1.073611
 H         2.527466         1.673474        -1.737738
 H        -0.072630        -1.346617         0.110321
 H         0.315194        -0.456605        -1.304638
 H         1.609397        -1.512655        -0.522705
