19
Iteration:  1811
 C        -1.066425         2.348556        -0.106593
 C         0.134431         1.737524         0.572639
 O         0.336612         1.762127         2.089274
 C         1.690225         1.077954         1.847288
 C         2.527976         2.208564         1.287149
 C         1.681805         1.897205        -0.007374
 O         1.820350         2.239880        -1.329386
 C         1.065462         0.629356         0.411040
 C         0.784774        -0.711806        -0.111473
 H        -2.087364         1.868000        -0.006317
 H        -1.175940         3.373204         0.415179
 H        -0.883508         2.617721        -1.094877
 H         1.916558         0.395060         2.623624
 H         2.610032         3.233836         1.649013
 H         3.482937         1.857373         1.067912
 H         2.619872         1.838772        -1.719768
 H        -0.156667        -1.023196         0.384782
 H         0.503004        -0.685347        -1.267655
 H         1.537060        -1.396191         0.059836
