19
Iteration:   199charge 0 multiplicity 1
 C        -1.038518         2.221346        -0.106811
 C         0.212860         1.792363         0.565649
 O         0.311180         1.844951         2.007173
 C         1.583504         1.091071         1.853298
 C         2.633331         2.104224         1.289535
 C         1.669376         1.969854         0.042361
 O         1.723854         2.347792        -1.348460
 C         1.119186         0.553816         0.501293
 C         0.780127        -0.707566        -0.108375
 H        -1.876873         1.712015         0.240410
 H        -1.115172         3.268975        -0.073515
 H        -1.040873         2.056257        -1.207189
 H         1.729851         0.493586         2.713671
 H         2.689055         3.098783         1.801805
 H         3.573191         1.561753         1.097552
 H         2.582740         1.958600        -1.696661
 H         0.202182        -1.351780         0.574975
 H         0.172532        -0.404795        -0.952752
 H         1.697209        -1.408450        -0.499787
