19
Iteration:  4078
 C        -1.044119         2.424061        -0.010401
 C         0.185882         1.807355         0.603221
 O         0.381042         1.895190         2.092722
 C         1.508429         1.078456         1.853765
 C         2.697228         1.920275         1.171059
 C         1.654978         1.864101         0.077165
 O         1.746402         2.369694        -1.340937
 C         0.948128         0.559830         0.402359
 C         0.810328        -0.781323        -0.234412
 H        -1.902905         1.766963         0.336802
 H        -1.047349         3.384247         0.520158
 H        -0.978515         2.390471        -1.061741
 H         1.827748         0.416054         2.719063
 H         2.960824         2.788920         1.732591
 H         3.520644         1.296641         0.951621
 H         2.467225         3.059670        -1.290269
 H         0.266727        -1.539549         0.383082
 H         0.590806        -0.719919        -1.346901
 H         1.813236        -1.188232        -0.347532
