19
Iteration:   226charge 0 multiplicity 1
 C        -1.027723         2.148963        -0.091253
 C         0.179756         1.844647         0.608972
 O         0.402982         2.027296         2.082898
 C         1.510321         1.131226         1.902767
 C         2.539002         1.943408         1.126891
 C         1.604394         1.914296         0.043655
 O         1.820567         2.443466        -1.267093
 C         0.923283         0.518014         0.490748
 C         0.927036        -0.793285        -0.207578
 H        -1.965843         1.487218         0.131740
 H        -1.269800         3.291936        -0.109171
 H        -0.908583         2.117406        -1.173344
 H         1.853771         0.722653         2.931861
 H         2.792518         2.934783         1.422535
 H         3.352750         1.258927         0.947419
 H         2.625886         1.940855        -1.612129
 H         0.596729        -1.706272         0.504162
 H         0.288628        -0.632507        -1.126580
 H         1.875493        -1.055757        -0.472222
