19
Iteration:  3644
 C        -1.068821         2.408459        -0.016212
 C         0.239665         1.838257         0.547546
 O         0.372081         1.982611         1.914858
 C         1.486149         0.986066         1.852382
 C         2.584751         1.884574         1.204423
 C         1.665591         1.810259         0.022187
 O         1.625100         2.514053        -1.209004
 C         1.054312         0.535938         0.436434
 C         1.038494        -0.856199        -0.147177
 H        -1.913445         1.787687         0.209176
 H        -1.366750         3.540373         0.254278
 H        -1.039563         2.436119        -1.057829
 H         1.509935         0.534567         2.893553
 H         2.662299         2.882921         1.694561
 H         3.516611         1.377190         1.027621
 H         2.524771         2.312345        -1.607811
 H         0.509773        -1.491147         0.732849
 H         0.298518        -1.023303        -0.977552
 H         2.032625        -1.218073        -0.281706
