19
Iteration:  1922charge 0 multiplicity 1
 C        -1.132202         2.245004        -0.077033
 C         0.206405         1.822577         0.573922
 O         0.298290         1.850876         2.045685
 C         1.583739         1.060035         1.851529
 C         2.570886         1.990887         1.200089
 C         1.641759         1.971774         0.002986
 O         1.868765         2.337887        -1.309149
 C         1.104569         0.608043         0.453952
 C         0.824010        -0.660810        -0.113925
 H        -2.016812         1.866492         0.625676
 H        -1.234340         3.341376        -0.184269
 H        -1.237503         1.817069        -1.063063
 H         1.905892         0.544072         2.826694
 H         2.681718         2.967016         1.714229
 H         3.494681         1.572692         0.938066
 H         2.735288         1.946338        -1.560739
 H         0.307142        -1.311391         0.628556
 H         0.115831        -0.613407        -1.034600
 H         1.681236        -1.229925        -0.394358
