19
Iteration:  1249
 C        -1.013278         2.342292        -0.046822
 C         0.223406         1.753052         0.581134
 O         0.294276         1.838827         2.013248
 C         1.545465         1.064625         1.867982
 C         2.553298         2.130902         1.216040
 C         1.700579         1.847349         0.003622
 O         1.741181         2.388355        -1.306463
 C         1.051545         0.539465         0.465502
 C         0.868363        -0.754866        -0.117095
 H        -1.906030         1.945305         0.248199
 H        -0.975210         3.351221         0.256916
 H        -0.870859         2.207628        -1.125614
 H         1.876830         0.393075         2.725949
 H         2.558748         3.154813         1.551264
 H         3.565069         1.744721         1.097136
 H         2.479656         2.108793        -1.932687
 H         0.018008        -1.252185         0.340394
 H         0.515086        -0.699984        -1.175197
 H         1.709130        -1.296212         0.042567
