19
Iteration:  2892charge 0 multiplicity 1
 C        -1.031591         2.372165         0.023655
 C         0.186384         1.816129         0.570172
 O         0.310561         1.823507         2.017219
 C         1.563483         1.100818         1.917972
 C         2.506860         2.147560         1.222347
 C         1.673858         1.903966         0.059245
 O         1.786247         2.336349        -1.260392
 C         1.042375         0.555681         0.413482
 C         0.881529        -0.875493        -0.280629
 H        -1.912007         1.708343         0.139886
 H        -1.114752         3.403813         0.399832
 H        -0.897436         2.513525        -1.061844
 H         1.853628         0.626497         2.756409
 H         2.401127         3.132523         1.522191
 H         3.488332         1.834376         0.993340
 H         2.707751         2.163583        -1.545147
 H         0.339478        -1.715564         0.168520
 H         0.493883        -0.778032        -1.279746
 H         1.905412        -1.331058        -0.333111
