19
Iteration:   370
 C        -1.086476         2.173836        -0.119772
 C         0.177367         1.797668         0.559590
 O         0.364753         1.997746         2.048959
 C         1.514546         1.069846         1.830117
 C         2.699741         1.952930         1.285824
 C         1.648409         1.929685         0.030546
 O         1.715812         2.386725        -1.280536
 C         1.035878         0.626561         0.438875
 C         0.881079        -0.725041        -0.135478
 H        -1.845000         1.486001         0.120443
 H        -1.529582         3.131176         0.065071
 H        -0.918323         2.139804        -1.220268
 H         1.697852         0.329993         2.583261
 H         2.963277         2.788255         1.795047
 H         3.573020         1.478404         0.986445
 H         2.626750         2.188860        -1.622727
 H         0.129741        -1.322020         0.586446
 H         0.469335        -0.615286        -1.172919
 H         1.788421        -1.284901        -0.109095
