19
Iteration:  1369charge 0 multiplicity 1
 C        -1.011471         2.224221        -0.193491
 C         0.166901         1.800872         0.656799
 O         0.402078         1.893654         2.159735
 C         1.544236         1.141663         1.984729
 C         2.576456         2.042666         1.208095
 C         1.570942         1.914511         0.008193
 O         1.790969         2.266517        -1.340992
 C         1.071950         0.617814         0.530685
 C         0.794204        -0.661122        -0.289055
 H        -1.863415         1.581219        -0.042109
 H        -1.213567         3.214454         0.088979
 H        -0.638050         2.143770        -1.295570
 H         1.923369         0.548572         2.909429
 H         2.687920         3.068773         1.522376
 H         3.554983         1.624077         0.926299
 H         2.591033         1.811603        -1.560439
 H         0.103726        -1.377389         0.283054
 H         0.255843        -0.530794        -1.376246
 H         1.642896        -1.243877        -0.436488
