19
Iteration:  3786
 C        -1.067960         2.104305        -0.062646
 C         0.189957         1.820861         0.644402
 O         0.457142         1.955959         2.087344
 C         1.528246         1.068307         1.853353
 C         2.501476         1.954206         1.115041
 C         1.507837         2.005193         0.018518
 O         1.886428         2.371522        -1.226856
 C         1.031137         0.585663         0.427200
 C         0.855370        -0.707886        -0.210947
 H        -1.871050         1.635560         0.441586
 H        -1.416520         3.241419        -0.001610
 H        -0.992360         1.916331        -1.091245
 H         1.690397         0.413928         2.736294
 H         2.985826         2.927215         1.486703
 H         3.280139         1.222925         0.826381
 H         2.753253         2.839133        -1.310384
 H         0.069688        -1.368838         0.061457
 H         0.396583        -0.476617        -1.122575
 H         1.751318        -1.187675        -0.227715
