19
Iteration:  4856charge 0 multiplicity 1
 C        -1.035238         2.328539         0.009924
 C         0.173735         1.861215         0.659632
 O         0.425917         1.825084         2.119472
 C         1.573184         1.019521         1.780578
 C         2.630135         1.952836         1.161763
 C         1.614211         1.906650         0.004924
 O         1.831692         2.359025        -1.262454
 C         1.017856         0.621235         0.374283
 C         0.756122        -0.759438        -0.198622
 H        -1.946463         1.768003         0.310881
 H        -1.397946         3.377851         0.228909
 H        -0.912883         2.153161        -1.115992
 H         1.848025         0.438847         2.666182
 H         2.894837         2.962489         1.491262
 H         3.548714         1.457368         0.772561
 H         1.559238         3.301233        -1.369923
 H         0.215541        -1.372653         0.412405
 H         0.253849        -0.641238        -1.135040
 H         1.756974        -1.196397        -0.497367
