19
Iteration:  2007charge 0 multiplicity 1
 C        -1.075502         2.241160        -0.142145
 C         0.180911         1.868639         0.597353
 O         0.309500         1.984280         2.068733
 C         1.586363         1.003512         1.820730
 C         2.675639         1.845647         1.211314
 C         1.602601         2.044502         0.076293
 O         1.683317         2.378412        -1.325138
 C         0.957483         0.625650         0.483797
 C         1.008219        -0.719422        -0.107314
 H        -1.847695         1.514304         0.209605
 H        -1.459087         3.316480         0.017363
 H        -0.988494         2.087934        -1.135290
 H         1.688146         0.409213         2.650907
 H         3.238054         2.620078         1.813077
 H         3.362103         1.101485         0.716346
 H         2.441060         1.954212        -1.748406
 H         0.211111        -1.355577         0.335867
 H         1.001655        -0.805586        -1.242507
 H         1.924914        -1.179912         0.189160
