19
Iteration:  3322
 C        -1.030600         2.176107        -0.029145
 C         0.221305         1.804514         0.715808
 O         0.229103         1.807704         2.081127
 C         1.634226         1.100227         1.838538
 C         2.558803         2.169440         1.165683
 C         1.670425         1.931014         0.033551
 O         1.884946         2.303323        -1.304969
 C         1.105700         0.597268         0.400479
 C         0.715339        -0.653871        -0.222656
 H        -1.860130         1.607836         0.298560
 H        -1.376243         3.184193         0.238462
 H        -0.893554         2.135699        -1.134658
 H         1.915049         0.449299         2.690488
 H         2.776757         3.204801         1.518826
 H         3.581451         1.694483         1.087117
 H         2.699162         1.807883        -1.577855
 H        -0.354957        -0.980032         0.118550
 H         0.426583        -0.466854        -1.304707
 H         1.454422        -1.542009        -0.195498
