19
Iteration:   652
 C        -1.009368         2.138809        -0.172701
 C         0.219353         1.883968         0.646788
 O         0.353097         1.974820         2.119951
 C         1.502164         1.065248         1.891802
 C         2.604334         1.972359         1.189582
 C         1.649955         1.972311         0.012615
 O         1.722512         2.450475        -1.287904
 C         0.966084         0.564519         0.494961
 C         0.853582        -0.792592        -0.186595
 H        -1.738401         1.519623         0.247862
 H        -1.233619         3.182882        -0.296603
 H        -0.798222         1.788936        -1.218166
 H         1.725897         0.494838         2.667884
 H         2.942573         2.908766         1.699274
 H         3.555649         1.443485         0.918797
 H         2.602485         2.193790        -1.701818
 H         0.424400        -1.629388         0.380267
 H         0.557829        -0.773143        -1.300701
 H         2.001775        -1.208878        -0.237132
