19
Iteration:   117charge 0 multiplicity 1
 C        -1.095093         2.172898        -0.061908
 C         0.271440         1.881156         0.602554
 O         0.335980         2.026843         2.005276
 C         1.472650         1.072574         1.816669
 C         2.620931         1.861614         1.154189
 C         1.654274         2.004284         0.025342
 O         1.763615         2.474448        -1.298081
 C         0.980297         0.540704         0.474000
 C         0.923184        -0.803286        -0.069959
 H        -1.817768         1.428184         0.448851
 H        -1.525533         3.178658         0.319955
 H        -0.979030         2.126884        -1.158773
 H         1.575692         0.292798         2.748520
 H         3.099828         2.758370         1.662976
 H         3.459588         1.148752         0.861687
 H         2.601750         2.363417        -1.766436
 H         0.051842        -1.430862         0.319926
 H         0.881154        -0.827080        -1.196822
 H         1.816636        -1.434676         0.133774
