19
Iteration:  4097charge 0 multiplicity 1
 C        -1.074335         2.418385         0.072308
 C         0.120799         1.876928         0.689607
 O         0.380453         1.914370         2.043974
 C         1.573215         0.940423         1.854631
 C         2.538495         1.908814         1.162669
 C         1.551541         1.951716        -0.042439
 O         1.880250         2.250999        -1.340004
 C         1.085687         0.588546         0.462074
 C         0.883915        -0.700387        -0.252519
 H        -1.995650         1.776552         0.337941
 H        -1.147120         3.354152         0.551150
 H        -0.780590         2.428616        -0.956999
 H         1.733622         0.330430         2.794058
 H         2.816194         2.867644         1.693346
 H         3.432967         1.320720         0.886954
 H         2.141001         3.186556        -1.504389
 H         0.029549        -1.286678         0.251994
 H         0.413244        -0.562215        -1.297288
 H         1.731554        -1.511519        -0.396779
