19
Iteration:  4929charge 0 multiplicity 1
 C        -1.137064         2.202434         0.106057
 C         0.230448         1.837416         0.576597
 O         0.462318         1.842612         2.052036
 C         1.554126         1.003954         1.872942
 C         2.639660         2.004054         1.209075
 C         1.663206         1.912076        -0.057167
 O         1.887848         2.396227        -1.368158
 C         1.069316         0.549616         0.522049
 C         0.665499        -0.659314        -0.256628
 H        -1.969885         1.581458         0.427351
 H        -1.403511         3.240858         0.306265
 H        -1.245575         2.078994        -0.967284
 H         1.683866         0.246626         2.698906
 H         2.777231         2.854030         1.880322
 H         3.675685         1.629281         0.994479
 H         1.728514         3.374497        -1.283802
 H        -0.448831        -1.104115         0.058522
 H         0.600253        -0.233802        -1.337762
 H         1.486980        -1.330787        -0.414982
