19
Iteration:   602
 C        -0.971796         2.218364        -0.057672
 C         0.245330         1.814383         0.600048
 O         0.284035         1.864753         2.025816
 C         1.573009         1.143046         1.936103
 C         2.573273         2.187002         1.243864
 C         1.628318         1.883389         0.016213
 O         1.815365         2.369610        -1.281793
 C         1.035800         0.509221         0.441670
 C         0.798204        -0.783357        -0.282915
 H        -1.796198         1.506017         0.342819
 H        -1.244592         3.289489         0.167344
 H        -0.900840         2.146699        -1.156248
 H         1.971657         0.685977         3.038290
 H         2.584158         3.268984         1.519145
 H         3.571697         1.763989         1.303322
 H         2.449866         1.713579        -1.597512
 H         0.203635        -1.591413         0.433812
 H         0.118434        -0.442389        -1.054812
 H         1.560553        -1.384364        -0.687817
