19
Iteration:  3891
 C        -0.934099         2.369332        -0.005941
 C         0.173511         1.779191         0.694143
 O         0.321077         1.873586         2.075413
 C         1.596768         1.037012         1.871264
 C         2.542751         2.017215         1.168581
 C         1.603472         1.923026        -0.008399
 O         1.773562         2.410787        -1.293554
 C         1.008935         0.538422         0.480057
 C         0.884021        -0.755019        -0.272354
 H        -1.925025         1.854819         0.003514
 H        -1.140605         3.366604         0.320185
 H        -0.846781         2.369572        -1.077558
 H         1.858321         0.520847         2.822657
 H         2.777757         2.919202         1.704436
 H         3.404356         1.462515         0.884929
 H         1.799408         1.600426        -1.877497
 H         0.204578        -1.428894         0.186050
 H         0.729389        -0.556549        -1.324274
 H         1.813311        -1.196652        -0.292657
