19
Iteration:  1837charge 0 multiplicity 1
 C        -0.911568         2.359103        -0.061011
 C         0.252714         1.848705         0.623679
 O         0.289538         1.836497         2.041842
 C         1.565623         1.077964         1.884150
 C         2.489731         2.071175         1.206912
 C         1.607787         1.917923        -0.044179
 O         1.742255         2.410683        -1.345338
 C         1.132581         0.517796         0.423680
 C         0.797801        -0.874043        -0.063635
 H        -1.728180         1.586006        -0.036612
 H        -1.293890         3.228001         0.381296
 H        -0.673328         2.629406        -1.117922
 H         1.662595         0.559855         2.895913
 H         2.631569         3.161561         1.315148
 H         3.467186         1.567531         0.946491
 H         2.687261         2.300017        -1.589446
 H        -0.092601        -1.233299         0.463563
 H         0.548324        -0.857014        -1.069804
 H         1.756616        -1.552319         0.012644
