19
Iteration:  3350charge 0 multiplicity 1
 C        -1.215533         2.133882        -0.034013
 C         0.224741         1.861910         0.635014
 O         0.445359         1.964101         2.070331
 C         1.590993         1.068811         1.922042
 C         2.499185         1.966262         1.251043
 C         1.588506         1.986103         0.053436
 O         1.974096         2.355901        -1.339127
 C         0.998065         0.595349         0.428898
 C         0.824309        -0.697235        -0.292418
 H        -2.021908         1.533255         0.591052
 H        -1.546028         3.199358         0.017771
 H        -1.192151         2.007582        -1.121840
 H         1.789420         0.544595         2.913371
 H         2.711630         2.927054         1.699011
 H         3.507947         1.612219         1.064943
 H         2.132985         1.488348        -1.817365
 H        -0.025842        -1.226962        -0.013198
 H         0.849787        -0.413368        -1.352830
 H         1.663425        -1.396070        -0.263791
