19
Iteration:  2248charge 0 multiplicity 1
 C        -0.922129         2.406870        -0.031775
 C         0.176244         1.705926         0.582973
 O         0.341543         1.919971         1.999543
 C         1.483881         1.063457         1.908958
 C         2.485776         2.146935         1.186399
 C         1.618628         1.852208        -0.000164
 O         1.614380         2.288688        -1.252330
 C         1.141959         0.511224         0.519694
 C         1.029040        -0.822767        -0.254674
 H        -2.035827         2.001088         0.006105
 H        -0.863337         3.386419         0.580633
 H        -0.777969         2.748045        -1.051704
 H         1.689046         0.682058         3.021104
 H         2.417684         3.070426         1.822864
 H         3.527062         1.881796         0.991682
 H         2.517556         2.325966        -1.554434
 H         0.487448        -1.702382         0.138579
 H         0.297701        -0.591333        -1.120973
 H         1.972350        -1.148256        -0.744176
