19
Iteration:   175
 C        -0.942337         2.248863        -0.044656
 C         0.304590         1.788665         0.604222
 O         0.283354         1.790805         2.047273
 C         1.584624         1.109080         1.877471
 C         2.479016         2.187550         1.240287
 C         1.659742         1.920807        -0.005015
 O         1.771267         2.395329        -1.356751
 C         1.204846         0.546957         0.399269
 C         0.697173        -0.768150        -0.123204
 H        -1.750142         1.723572         0.370416
 H        -1.024167         3.294442         0.043873
 H        -0.983143         2.003572        -1.084579
 H         1.686125         0.496235         2.755532
 H         2.299574         3.225686         1.715384
 H         3.544428         1.830325         1.102429
 H         2.472880         1.833594        -1.758564
 H        -0.043259        -1.005042         0.535999
 H         0.246604        -0.757797        -1.127259
 H         1.522930        -1.657992        -0.004144
