19
Iteration:  3520charge 0 multiplicity 1
 C        -1.173938         2.095813        -0.003744
 C         0.126399         1.811666         0.657253
 O         0.408604         1.985144         2.037037
 C         1.541963         1.078702         1.862250
 C         2.612058         1.909985         1.103564
 C         1.607274         2.024336        -0.025836
 O         1.931061         2.473113        -1.244389
 C         0.988169         0.578990         0.501358
 C         0.807898        -0.725721        -0.225486
 H        -1.733729         1.221763         0.116486
 H        -1.682440         3.075765         0.004172
 H        -0.894669         2.091952        -1.049505
 H         1.863311         0.640859         2.754634
 H         3.041229         2.828016         1.572990
 H         3.299268         1.095170         0.731894
 H         2.890732         2.210712        -1.268529
 H        -0.065400        -1.236061         0.292125
 H         0.739502        -0.726648        -1.311221
 H         1.683309        -1.436220         0.026521
