19
Iteration:  2380charge 0 multiplicity 1
 C        -1.089208         2.123850        -0.097106
 C         0.181486         1.855793         0.633676
 O         0.295880         1.739469         2.133104
 C         1.626537         1.059451         1.812726
 C         2.609456         2.131335         1.236581
 C         1.650774         1.971677         0.023611
 O         1.817018         2.367057        -1.321166
 C         1.090538         0.637988         0.412414
 C         0.750857        -0.632325        -0.193786
 H        -2.066131         1.613264         0.325918
 H        -1.307067         3.182694        -0.276991
 H        -0.822744         1.588197        -1.137691
 H         2.101983         0.315504         2.726391
 H         2.622422         3.104676         1.784058
 H         3.622794         1.896726         0.962511
 H         2.767133         2.290052        -1.375430
 H        -0.117607        -1.111214         0.296037
 H         0.740080        -0.583041        -1.344868
 H         1.498441        -1.404990         0.094897
