19
Iteration:    55charge 0 multiplicity 1
 C        -0.995454         2.405517        -0.006665
 C         0.145553         1.747450         0.666022
 O         0.319861         1.809148         2.046107
 C         1.576864         1.159175         1.925816
 C         2.469756         2.128384         1.207324
 C         1.601472         1.873574        -0.017967
 O         1.855452         2.251505        -1.344867
 C         1.017447         0.577002         0.487767
 C         0.920248        -0.746104        -0.246871
 H        -1.958969         2.050158         0.222908
 H        -1.034104         3.443516         0.125651
 H        -0.917937         2.185815        -1.042990
 H         1.987430         0.691279         2.850398
 H         2.478307         3.166348         1.585910
 H         3.485480         1.735753         1.053609
 H         2.284556         1.525235        -1.828827
 H         0.489171        -1.480286         0.347075
 H         0.278722        -0.646106        -1.138319
 H         1.963465        -1.018665        -0.595452
