19
Iteration:  1377charge 0 multiplicity 1
 C        -1.044107         2.265686        -0.197693
 C         0.205543         1.797151         0.676391
 O         0.407273         1.862419         2.142715
 C         1.586378         1.180974         1.929704
 C         2.508861         2.105505         1.260436
 C         1.581841         1.909510        -0.001649
 O         1.795031         2.236427        -1.362469
 C         1.106178         0.543483         0.518603
 C         0.792116        -0.685351        -0.282570
 H        -1.929931         1.515436         0.059874
 H        -1.224971         3.308598         0.119281
 H        -0.813251         2.385563        -1.234413
 H         1.820278         0.748393         2.814926
 H         2.755440         2.977920         1.926649
 H         3.429416         1.555959         1.058926
 H         2.612912         1.822991        -1.638297
 H         0.020522        -1.161128         0.344108
 H         0.380116        -0.343793        -1.200634
 H         1.566150        -1.429018        -0.587495
