19
Iteration:  4155
 C        -1.085260         2.283029         0.084991
 C         0.265903         1.863966         0.530003
 O         0.413196         1.906827         2.077278
 C         1.545182         1.032771         1.925516
 C         2.547560         1.956064         1.160023
 C         1.554703         1.926084         0.009513
 O         1.966235         2.271149        -1.300920
 C         1.050048         0.569236         0.504634
 C         0.721042        -0.651719        -0.329013
 H        -1.817800         1.667430         0.633460
 H        -1.001986         3.352684         0.415572
 H        -1.332785         2.379833        -0.991201
 H         1.883006         0.372844         2.739427
 H         2.855443         2.841976         1.684198
 H         3.392895         1.289315         1.073102
 H         1.334930         2.637471        -1.944651
 H        -0.126482        -1.268907         0.214818
 H         0.604907        -0.203172        -1.429501
 H         1.652964        -1.305845        -0.461425
