19
Iteration:  2613charge 0 multiplicity 1
 C        -1.153027         2.255394        -0.024028
 C         0.229102         1.787420         0.527607
 O         0.337663         1.828415         1.953379
 C         1.592918         1.092524         1.892648
 C         2.513544         2.115622         1.251169
 C         1.673136         1.890606        -0.038692
 O         1.846889         2.554687        -1.248453
 C         1.117538         0.505887         0.440379
 C         0.843978        -0.881978        -0.127547
 H        -1.889265         1.712023         0.582664
 H        -1.285589         3.422404         0.190537
 H        -1.330674         2.116735        -1.076476
 H         1.852780         0.509376         2.712053
 H         2.446257         3.021956         1.731683
 H         3.534831         1.880493         1.119048
 H         2.431528         1.944348        -1.739052
 H         0.153783        -1.455903         0.559415
 H         0.399579        -0.548994        -1.205325
 H         1.627432        -1.545311        -0.234276
