19
Iteration:  4899charge 0 multiplicity 1
 C        -1.021105         2.083892         0.055668
 C         0.249810         1.857212         0.676042
 O         0.456636         2.001245         2.076989
 C         1.560266         1.121470         1.875010
 C         2.614902         1.869292         1.136847
 C         1.587893         1.923903        -0.008513
 O         1.854409         2.420314        -1.230951
 C         1.064364         0.589829         0.376771
 C         0.659322        -0.707599        -0.343975
 H        -1.816670         1.405526         0.261196
 H        -1.556030         2.994712         0.418180
 H        -0.733008         2.172342        -1.049553
 H         1.716091         0.361450         2.644128
 H         3.098774         2.573520         1.820981
 H         3.380746         1.084345         0.865558
 H         1.259064         3.185050        -1.303847
 H        -0.060910        -1.167195         0.221767
 H         0.293598        -0.506807        -1.306620
 H         1.563433        -1.328852        -0.340106
