19
Iteration:   454charge 0 multiplicity 1
 C        -1.006544         2.278937        -0.063135
 C         0.258437         1.860373         0.555778
 O         0.284712         1.817188         2.034492
 C         1.529080         1.031223         1.844541
 C         2.509312         2.118462         1.287130
 C         1.655026         1.979471         0.021353
 O         1.751558         2.301833        -1.318444
 C         1.197081         0.565050         0.446030
 C         0.817309        -0.731435        -0.126191
 H        -1.932078         1.919550         0.463883
 H        -1.074905         3.434402        -0.050442
 H        -1.084142         1.937051        -1.110532
 H         1.890265         0.432006         2.629459
 H         2.413782         3.218294         1.691870
 H         3.558308         1.709108         1.006184
 H         2.534001         1.860164        -1.651592
 H         0.182983        -1.325887         0.506813
 H         0.276131        -0.590189        -1.126792
 H         1.831880        -1.356553        -0.419096
