19
Iteration:  1316
 C        -1.181678         2.259875        -0.019788
 C         0.135983         1.787564         0.613236
 O         0.370000         2.014837         1.975715
 C         1.452415         1.064302         1.885345
 C         2.619656         1.940019         1.246461
 C         1.764678         1.891970        -0.055522
 O         1.807634         2.520625        -1.310123
 C         1.051422         0.571986         0.432846
 C         0.934491        -0.862986        -0.135503
 H        -2.005295         2.008691         0.474272
 H        -1.208505         3.317457         0.037356
 H        -1.268482         1.769981        -1.065811
 H         1.602827         0.542484         2.962931
 H         2.997199         2.785878         1.766981
 H         3.424179         1.176734         1.076280
 H         2.534038         2.202413        -1.831493
 H         0.239495        -1.425467         0.494267
 H         0.383692        -0.993571        -1.086407
 H         1.830606        -1.402471        -0.106377
