19
Iteration:  4889charge 0 multiplicity 1
 C        -1.073501         2.130961         0.006319
 C         0.217904         1.815541         0.688413
 O         0.464350         1.967491         2.102632
 C         1.538301         1.024924         1.880720
 C         2.650969         1.824707         1.148852
 C         1.593376         1.975827        -0.001987
 O         1.864431         2.466584        -1.317100
 C         1.045590         0.575159         0.471847
 C         0.691408        -0.664976        -0.250613
 H        -1.718661         1.258351         0.079611
 H        -1.392194         3.161525         0.280212
 H        -0.875033         2.215300        -1.132284
 H         1.703599         0.446143         2.792148
 H         3.141205         2.731948         1.610238
 H         3.389964         1.185487         0.619313
 H         1.333716         3.231222        -1.547118
 H         0.000985        -1.285984         0.120713
 H         0.345015        -0.353911        -1.190143
 H         1.547495        -1.349079        -0.534255
