19
Iteration:  4608
 C        -1.020794         2.348055        -0.041103
 C         0.238615         1.858380         0.632131
 O         0.430372         1.933189         2.125483
 C         1.532476         0.961881         1.885194
 C         2.544436         1.814082         1.127976
 C         1.633798         1.823404        -0.043600
 O         1.830885         2.480632        -1.292101
 C         0.957766         0.575414         0.425102
 C         0.875241        -0.733053        -0.168173
 H        -1.924148         1.752720         0.215702
 H        -1.222844         3.477825         0.131428
 H        -1.140909         2.368006        -1.175904
 H         1.843001         0.419407         2.812050
 H         2.981972         2.747030         1.657359
 H         3.309660         1.141794         0.718805
 H         1.157462         3.176750        -1.512953
 H         0.147966        -1.354193         0.475306
 H         0.428574        -0.570865        -1.184985
 H         1.805490        -1.191084        -0.296205
