19
Iteration:  2217charge 0 multiplicity 1
 C        -1.089131         2.441572         0.057105
 C         0.143570         1.801206         0.651420
 O         0.267543         1.747919         2.065918
 C         1.515142         1.113831         1.883851
 C         2.496193         2.171729         1.132721
 C         1.640314         1.900865        -0.030259
 O         1.833555         2.322527        -1.360310
 C         1.102494         0.568967         0.456638
 C         0.986377        -0.893759        -0.218927
 H        -1.986998         1.992578         0.574518
 H        -0.994998         3.482088         0.314895
 H        -0.949422         2.298226        -1.041953
 H         1.841478         0.613456         2.903546
 H         2.381245         3.209859         1.660959
 H         3.557425         1.884710         0.946040
 H         2.764054         2.049611        -1.589822
 H         0.244688        -1.560619         0.290502
 H         0.784446        -0.555467        -1.344408
 H         1.888332        -1.433220        -0.216063
