19
Iteration:  1076
 C        -0.900707         2.203377        -0.174140
 C         0.238202         1.832496         0.616921
 O         0.310466         1.932560         2.030386
 C         1.557078         1.079041         1.881472
 C         2.623105         1.963850         1.210782
 C         1.625652         1.936354         0.039144
 O         1.601160         2.501121        -1.260902
 C         1.010167         0.550663         0.482807
 C         0.839621        -0.818026        -0.150763
 H        -1.693575         1.747001         0.315085
 H        -1.016639         3.284438        -0.144701
 H        -0.667597         1.870431        -1.197075
 H         1.708576         0.599884         2.856677
 H         3.064401         2.875124         1.599045
 H         3.495874         1.305028         0.941936
 H         2.498681         2.395976        -1.544102
 H         0.084078        -1.484196         0.208748
 H         0.869178        -0.703760        -1.144274
 H         1.833549        -1.424499        -0.093369
