19
Iteration:  3543charge 0 multiplicity 1
 C        -1.175353         2.029707         0.011908
 C         0.229225         1.811234         0.565536
 O         0.359141         2.030190         2.008304
 C         1.519069         1.082454         1.903924
 C         2.638965         1.972397         1.173259
 C         1.711660         1.903332        -0.027601
 O         1.855444         2.410277        -1.262771
 C         1.039976         0.578937         0.524338
 C         0.782443        -0.636876        -0.282173
 H        -1.697445         1.334818         0.598954
 H        -1.426791         3.073821         0.254888
 H        -1.538697         2.037628        -0.977024
 H         1.691168         0.530822         2.820049
 H         2.851309         2.883648         1.784726
 H         3.501499         1.285426         1.003147
 H         2.800519         2.170837        -1.311056
 H        -0.201548        -1.151355         0.072217
 H         0.730356        -0.315124        -1.332432
 H         1.602029        -1.414549        -0.294033
