19
Iteration:  3049
 C        -1.050406         2.335265        -0.061018
 C         0.254736         1.835573         0.450809
 O         0.336079         1.729177         2.122317
 C         1.569684         0.996571         1.820322
 C         2.524448         2.131538         1.261366
 C         1.660614         1.969035        -0.051902
 O         1.852382         2.490231        -1.351422
 C         1.070999         0.567543         0.352206
 C         0.728384        -0.909256         0.004339
 H        -1.910312         1.702297         0.207641
 H        -1.245288         3.445033         0.238959
 H        -0.914365         2.367014        -1.214804
 H         1.729964         0.460602         2.881252
 H         2.283703         3.060942         1.768880
 H         3.519152         1.722448         1.094380
 H         2.796690         2.827075        -1.343590
 H         0.427757        -1.387954         0.991082
 H         0.093331        -0.960957        -0.891484
 H         1.797818        -1.497068        -0.406422
