19
Iteration:   338charge 0 multiplicity 1
 C        -0.936104         2.329666        -0.094992
 C         0.241211         1.689110         0.569927
 O         0.291733         1.838166         2.141854
 C         1.556469         1.187647         1.894649
 C         2.533115         2.173840         1.203884
 C         1.648576         1.872837        -0.006372
 O         1.745205         2.414736        -1.328035
 C         1.064949         0.488092         0.490752
 C         0.827467        -0.807229        -0.190581
 H        -1.759066         1.709419         0.120950
 H        -1.003783         3.347204         0.265186
 H        -0.722477         2.282873        -1.182009
 H         1.871885         0.604654         2.730847
 H         2.590257         3.168670         1.553182
 H         3.481153         1.752253         0.992250
 H         2.300202         1.774364        -1.755994
 H        -0.182217        -1.308563         0.173175
 H         0.686059        -0.652402        -1.289502
 H         1.609784        -1.562362        -0.049640
