19
Iteration:   414charge 0 multiplicity 1
 C        -1.111049         2.130727         0.006663
 C         0.214814         1.777494         0.594540
 O         0.305730         1.994446         1.988463
 C         1.513223         1.069271         1.859268
 C         2.497968         2.031109         1.096844
 C         1.618192         1.880830        -0.048388
 O         1.997262         2.498769        -1.241477
 C         1.018816         0.553684         0.527158
 C         0.846175        -0.749789        -0.144043
 H        -1.860828         1.696217         0.598088
 H        -1.132560         3.159017         0.280557
 H        -1.152203         1.972836        -1.086054
 H         1.645065         0.472163         2.745357
 H         2.790258         2.924321         1.482603
 H         3.312077         1.395491         1.002621
 H         2.627061         1.922012        -1.752597
 H         0.550337        -1.617678         0.526732
 H         0.181883        -0.611996        -1.011314
 H         1.709741        -1.143421        -0.461912
