19
Iteration:  2815
 C        -1.070176         2.142042        -0.098326
 C         0.201271         1.730926         0.567043
 O         0.390278         1.931070         1.983924
 C         1.530756         1.004669         1.884013
 C         2.565027         1.989183         1.180601
 C         1.597673         1.871423        -0.011015
 O         1.858711         2.669813        -1.268457
 C         1.013363         0.549482         0.512330
 C         0.819219        -0.772507        -0.122928
 H        -1.978196         1.624097         0.325943
 H        -1.266613         3.187501         0.091008
 H        -0.899198         1.890067        -1.197113
 H         1.740144         0.539755         2.838588
 H         2.609754         2.867190         1.758355
 H         3.493422         1.446599         1.052909
 H         2.799956         2.502312        -1.354232
 H         0.167694        -1.387977         0.523649
 H         0.356180        -0.760461        -1.125779
 H         1.801925        -1.326813        -0.323401
