19
Iteration:   832charge 0 multiplicity 1
 C        -1.164004         2.211059        -0.012727
 C         0.188834         1.819018         0.574686
 O         0.280397         1.828429         2.035341
 C         1.568458         1.066361         1.844761
 C         2.598276         2.104016         1.192138
 C         1.640780         1.888276        -0.041378
 O         1.935045         2.394215        -1.329673
 C         0.998909         0.597190         0.498033
 C         0.894644        -0.678327        -0.166663
 H        -1.961936         1.661868         0.506531
 H        -1.261275         3.237647         0.290217
 H        -1.232368         1.926078        -1.048910
 H         1.774407         0.441722         2.839942
 H         2.486820         3.160120         1.671023
 H         3.572337         1.617073         1.113262
 H         2.759035         1.875445        -1.554230
 H         0.300690        -1.434200         0.405150
 H         0.140670        -0.534061        -0.875277
 H         1.959772        -1.232682        -0.329715
