19
Iteration:   220
 C        -1.079890         2.183712        -0.130012
 C         0.174790         1.816936         0.643238
 O         0.367197         2.023515         2.085131
 C         1.527127         1.097936         1.954410
 C         2.563882         1.964729         1.134587
 C         1.626685         1.885348         0.002934
 O         1.808319         2.409658        -1.256237
 C         1.006395         0.544671         0.460662
 C         0.882525        -0.750864        -0.187840
 H        -1.879959         1.573064         0.112176
 H        -1.230993         3.215894        -0.055312
 H        -0.900497         2.019586        -1.219776
 H         1.918814         0.613985         2.796747
 H         2.734231         3.038518         1.521379
 H         3.488606         1.338815         0.935957
 H         2.587258         2.089338        -1.733980
 H         0.528297        -1.482575         0.456554
 H         0.257253        -0.730806        -1.066928
 H         1.959473        -1.139353        -0.555305
