19
Iteration:  4358
 C        -1.036411         2.323930         0.033470
 C         0.151946         1.817942         0.616709
 O         0.394908         1.994404         2.127434
 C         1.568058         1.010038         1.841249
 C         2.572396         1.912130         1.133586
 C         1.627160         1.912488        -0.032466
 O         1.872972         2.241758        -1.329001
 C         0.959691         0.566152         0.535214
 C         0.855077        -0.700407        -0.310036
 H        -1.966311         1.998849         0.477038
 H        -1.182579         3.332476         0.448832
 H        -1.094985         2.237743        -1.010605
 H         1.823531         0.467408         2.804233
 H         2.981286         2.770615         1.677521
 H         3.380392         1.268742         0.860697
 H         1.761931         3.201955        -1.351865
 H        -0.066261        -1.184745         0.049234
 H         0.619971        -0.231118        -1.256263
 H         1.782224        -1.387510        -0.305808
