19
Iteration:  1742
 C        -1.229037         2.162733        -0.088633
 C         0.141595         1.948442         0.645033
 O         0.381773         2.093338         2.074013
 C         1.488130         1.090329         1.870463
 C         2.713349         1.845762         1.232584
 C         1.598736         1.901646         0.021987
 O         1.842408         2.362169        -1.292644
 C         1.007645         0.615350         0.472300
 C         0.929384        -0.757493        -0.239910
 H        -1.923540         1.682755         0.545460
 H        -1.568161         3.240723        -0.201251
 H        -1.277278         1.604011        -1.199738
 H         1.691515         0.455024         2.781130
 H         3.303150         2.747320         1.479468
 H         3.472568         0.975729         0.965127
 H         2.720342         2.089712        -1.541495
 H         0.482151        -1.580921         0.370272
 H         0.402963        -0.795224        -1.289387
 H         2.002513        -1.003419        -0.390847
