19
Iteration:  1288
 C        -1.038261         2.333258         0.008568
 C         0.164707         1.855001         0.542393
 O         0.324443         1.811119         1.982769
 C         1.505447         0.982276         1.833049
 C         2.488773         2.073470         1.077515
 C         1.622366         1.951536        -0.041847
 O         1.919543         2.455395        -1.251725
 C         0.998722         0.570603         0.460119
 C         0.894845        -0.840756        -0.025935
 H        -1.884146         1.941322         0.817778
 H        -1.079226         3.493900        -0.043666
 H        -1.420894         2.046007        -0.961450
 H         1.829133         0.535302         2.719909
 H         2.719584         3.083019         1.558881
 H         3.433801         1.607125         0.733686
 H         2.791838         2.134931        -1.482677
 H         0.176400        -1.402921         0.641416
 H         0.633909        -1.061446        -1.084713
 H         1.948769        -1.375035         0.132923
