19
Iteration:  2679charge 0 multiplicity 1
 C        -1.063700         2.348468        -0.129341
 C         0.132092         1.803277         0.600140
 O         0.346327         1.905057         2.111721
 C         1.550048         1.090445         1.891760
 C         2.589002         1.968406         1.209234
 C         1.566016         1.946267         0.051469
 O         1.711275         2.375390        -1.286903
 C         0.994990         0.605859         0.430212
 C         1.097167        -0.844263        -0.228082
 H        -1.894026         1.638939        -0.058313
 H        -1.459260         3.278341         0.425881
 H        -0.784183         2.470631        -1.132244
 H         1.579539         0.330924         2.623445
 H         2.770725         2.878727         1.673788
 H         3.440359         1.403369         0.936479
 H         2.649752         2.489692        -1.526440
 H         0.536215        -1.556570         0.446932
 H         0.505736        -0.838764        -1.262079
 H         2.033855        -1.231689        -0.244618
