19
Iteration:  3452charge 0 multiplicity 1
 C        -0.922966         2.512079        -0.079234
 C         0.197260         1.676800         0.590883
 O         0.275445         1.764297         2.034327
 C         1.545776         1.054050         1.907474
 C         2.544544         2.165524         1.179016
 C         1.661676         1.942869        -0.010424
 O         1.653901         2.463873        -1.357154
 C         1.159157         0.434840         0.495705
 C         0.863509        -0.883012        -0.097741
 H        -1.878092         2.102517         0.200368
 H        -0.668128         3.530570         0.303427
 H        -0.788637         2.610660        -1.195808
 H         1.923511         0.452042         2.742983
 H         2.411451         3.034997         1.780597
 H         3.455376         1.560007         1.111126
 H         2.450414         2.201824        -1.805727
 H         0.315524        -1.447197         0.625567
 H         0.209938        -0.694016        -0.985914
 H         1.798525        -1.475562        -0.460153
