19
Iteration:  3515charge 0 multiplicity 1
 C        -1.159799         2.114250        -0.045251
 C         0.164593         1.813885         0.688615
 O         0.415664         1.978443         2.096601
 C         1.527417         1.086906         1.854932
 C         2.576609         1.918675         1.077207
 C         1.590309         1.984375        -0.001480
 O         1.936930         2.499795        -1.286673
 C         0.986469         0.604687         0.453962
 C         0.827229        -0.764028        -0.192241
 H        -1.928974         1.213653         0.082463
 H        -1.745381         3.079500         0.073702
 H        -0.913797         2.134161        -1.178599
 H         1.820839         0.510737         2.807677
 H         3.096524         2.711497         1.634632
 H         3.432858         1.204836         0.905501
 H         2.837246         2.184716        -1.309353
 H        -0.020503        -1.247348         0.257474
 H         0.687914        -0.747207        -1.288010
 H         1.633356        -1.417410         0.010350
