19
Iteration:  3632
 C        -0.960728         2.353170        -0.054894
 C         0.235220         1.873188         0.592195
 O         0.319953         1.950574         2.036404
 C         1.438447         1.032631         1.838679
 C         2.565905         1.958362         1.173646
 C         1.622754         1.888565        -0.018510
 O         1.679306         2.475292        -1.230561
 C         1.022881         0.499196         0.427835
 C         0.994671        -0.865670        -0.139136
 H        -1.798849         1.830921         0.395366
 H        -1.021844         3.485285         0.421515
 H        -0.892646         2.260046        -1.122439
 H         1.734965         0.298204         2.658942
 H         2.789364         2.964715         1.653872
 H         3.505372         1.424623         1.113213
 H         2.341037         2.196710        -1.881933
 H         0.584705        -1.710980         0.586553
 H         0.463360        -0.840022        -1.110928
 H         1.961445        -1.220999        -0.463682
