19
Iteration:  3545
 C        -1.178873         2.048406         0.020371
 C         0.227657         1.808121         0.566839
 O         0.361423         2.032865         2.021824
 C         1.498117         1.085114         1.898811
 C         2.637007         1.978882         1.191583
 C         1.722391         1.889624        -0.035102
 O         1.849855         2.407867        -1.275261
 C         1.060521         0.571013         0.521202
 C         0.789289        -0.635004        -0.296701
 H        -1.674792         1.338339         0.603735
 H        -1.416362         3.014093         0.239797
 H        -1.499754         1.985207        -0.964574
 H         1.732506         0.522404         2.861832
 H         2.795143         2.908762         1.774014
 H         3.456027         1.302395         1.065914
 H         2.820095         2.162160        -1.389494
 H        -0.223546        -1.129604         0.099679
 H         0.687888        -0.339617        -1.377638
 H         1.567077        -1.391599        -0.284099
