19
Iteration:  3616charge 0 multiplicity 1
 C        -0.954805         2.371457        -0.072527
 C         0.148045         1.755787         0.652425
 O         0.307736         1.819219         2.137262
 C         1.572885         1.073606         1.894829
 C         2.551649         2.019885         1.191527
 C         1.600488         1.960915        -0.009026
 O         1.772281         2.465667        -1.363802
 C         0.998252         0.553282         0.489124
 C         0.913937        -0.817651        -0.199651
 H        -1.946978         1.877844         0.168569
 H        -0.951666         3.473038        -0.166438
 H        -0.866571         2.265247        -1.238815
 H         1.838316         0.535470         2.772417
 H         2.724306         2.978904         1.659849
 H         3.462237         1.426202         0.897593
 H         2.318934         1.722061        -1.743956
 H         0.479090        -1.491874         0.439130
 H         0.408016        -0.810818        -1.167593
 H         1.976251        -1.168891        -0.368227
