19
Iteration:  1338charge 0 multiplicity 1
 C        -1.018475         2.174490        -0.113364
 C         0.202422         1.885612         0.555463
 O         0.363689         2.021714         2.020470
 C         1.526072         1.116090         1.905587
 C         2.630252         1.864602         1.236870
 C         1.594616         1.904026         0.021381
 O         1.737997         2.438999        -1.254202
 C         1.024990         0.572468         0.521493
 C         0.886821        -0.739805        -0.196909
 H        -1.763922         1.663477         0.323877
 H        -1.336604         3.194243        -0.022907
 H        -0.981077         1.791753        -1.195428
 H         1.786343         0.451482         2.852123
 H         2.886930         2.813798         1.638616
 H         3.517899         1.259195         0.949665
 H         2.353194         1.829340        -1.757653
 H         0.267997        -1.495555         0.319861
 H         0.339202        -0.625136        -1.194236
 H         1.834405        -1.200507        -0.354422
