19
Iteration:  4084charge 0 multiplicity 1
 C        -1.049164         2.416536         0.062663
 C         0.205284         1.745427         0.636645
 O         0.354832         1.931076         2.074276
 C         1.560345         1.058212         1.844005
 C         2.650108         1.894958         1.197553
 C         1.625846         1.919681         0.040753
 O         1.777576         2.329762        -1.351732
 C         0.981103         0.571335         0.400654
 C         0.814019        -0.774755        -0.250094
 H        -2.019116         1.888884         0.136030
 H        -1.212016         3.487725         0.336874
 H        -1.011997         2.501217        -1.074587
 H         1.786056         0.370817         2.642464
 H         2.963094         2.826839         1.766909
 H         3.566291         1.291135         0.894389
 H         2.415896         3.058900        -1.248791
 H         0.196316        -1.446689         0.365007
 H         0.545182        -0.586042        -1.295200
 H         1.891941        -1.180432        -0.289326
