19
Iteration:  2756
 C        -1.101430         2.159053        -0.013476
 C         0.135514         1.843613         0.595612
 O         0.311527         1.789723         2.098905
 C         1.529273         1.001888         1.828005
 C         2.484762         2.125019         1.199109
 C         1.652040         1.971198         0.003353
 O         1.933478         2.364526        -1.344732
 C         1.088427         0.628779         0.469470
 C         0.867193        -0.647451        -0.217988
 H        -1.853186         1.609719         0.570669
 H        -1.145518         3.289947         0.044477
 H        -1.197275         1.949696        -1.052783
 H         1.981601         0.415519         2.670818
 H         2.457608         2.935106         1.910547
 H         3.501603         1.733112         1.153486
 H         2.701210         1.759239        -1.546619
 H         0.013701        -1.232525         0.228132
 H         0.714346        -0.340817        -1.367911
 H         1.730346        -1.202139        -0.067684
