19
Iteration:   798
 C        -1.090655         2.133924        -0.137002
 C         0.193702         1.803382         0.617410
 O         0.374237         2.023482         2.067484
 C         1.559744         1.111007         1.941204
 C         2.628205         1.941807         1.272701
 C         1.601275         2.014217         0.010817
 O         1.750166         2.376592        -1.309637
 C         0.981451         0.551013         0.511580
 C         0.921565        -0.753586        -0.268977
 H        -1.922180         1.397519         0.086222
 H        -1.441766         3.152699         0.060037
 H        -0.863219         2.180997        -1.172376
 H         1.627423         0.539707         2.950535
 H         2.900685         2.936380         1.830829
 H         3.662262         1.453890         1.251714
 H         2.502175         1.968684        -1.729785
 H         0.458078        -1.492435         0.372348
 H         0.352963        -0.630997        -1.228840
 H         1.879989        -1.151151        -0.932614
