19
Iteration:  2829
 C        -1.092153         2.165324        -0.210614
 C         0.171592         1.853586         0.645887
 O         0.359976         1.924630         2.107906
 C         1.536095         1.052665         1.858529
 C         2.596729         1.917552         1.179047
 C         1.681578         1.929076        -0.038598
 O         1.784363         2.627681        -1.177200
 C         1.040402         0.548217         0.422822
 C         0.839861        -0.868321        -0.107027
 H        -1.939478         1.544377        -0.017385
 H        -1.400190         3.243683        -0.182599
 H        -0.796620         2.023838        -1.222578
 H         1.706649         0.339844         2.588351
 H         2.891772         2.937742         1.553251
 H         3.552274         1.446978         0.953109
 H         2.506515         2.409339        -1.818065
 H         0.272834        -1.482980         0.551632
 H         0.377424        -0.766956        -0.993329
 H         1.921215        -1.330205        -0.312504
