19
Iteration:  1115charge 0 multiplicity 1
 C        -1.069428         2.297722        -0.064331
 C         0.173525         1.750965         0.684408
 O         0.329348         1.808254         2.055251
 C         1.596248         1.135850         1.865346
 C         2.530674         2.141593         1.259015
 C         1.638651         1.982971        -0.040280
 O         1.877742         2.449380        -1.337315
 C         1.066116         0.551018         0.390763
 C         0.817973        -0.907449        -0.149378
 H        -2.122688         1.994031         0.242695
 H        -1.008639         3.402400         0.014535
 H        -1.072931         2.174609        -1.185547
 H         1.878603         0.461705         2.634129
 H         2.569318         3.087465         1.851695
 H         3.449348         1.611057         1.192831
 H         2.599572         1.933370        -1.809231
 H         0.005192        -1.384729         0.502261
 H         0.348419        -0.998806        -1.289583
 H         1.692523        -1.463018        -0.006115
