19
Iteration:  1204
 C        -1.054738         2.173912        -0.175729
 C         0.107801         1.794276         0.644539
 O         0.420728         1.978930         2.041778
 C         1.540667         1.066765         1.927861
 C         2.655480         1.959532         1.187544
 C         1.591753         1.870667         0.002153
 O         1.748047         2.365027        -1.272176
 C         1.003866         0.627847         0.570963
 C         0.894056        -0.645155        -0.205168
 H        -1.762023         1.406054        -0.179805
 H        -1.503838         3.046545         0.252358
 H        -0.669416         2.313661        -1.182556
 H         1.638929         0.426315         2.790341
 H         2.807829         2.934655         1.670630
 H         3.562045         1.422719         1.071787
 H         2.491015         1.941522        -1.811261
 H         0.276095        -1.473990         0.154435
 H         0.429832        -0.381956        -1.219429
 H         1.853691        -0.938571        -0.297817
