19
Iteration:  4225charge 0 multiplicity 1
 C        -1.037257         2.331054        -0.080228
 C         0.216849         1.798168         0.648207
 O         0.371524         1.852436         2.041684
 C         1.526260         0.972407         1.801566
 C         2.719897         1.944759         1.154579
 C         1.662613         1.894050         0.009930
 O         1.755873         2.435999        -1.263599
 C         1.056909         0.639755         0.404368
 C         0.710853        -0.762257        -0.116339
 H        -1.937483         1.896768         0.385580
 H        -0.840844         3.457680         0.175818
 H        -1.057784         2.150812        -1.197663
 H         1.560852         0.291531         2.679380
 H         2.994750         2.965205         1.453706
 H         3.644943         1.376669         0.966653
 H         2.257794         3.240226        -1.120429
 H         0.046019        -1.189059         0.686963
 H         0.195977        -0.760318        -1.108386
 H         1.519712        -1.494838        -0.257542
