19
Iteration:  2238
 C        -0.949468         2.448560        -0.001843
 C         0.176664         1.630329         0.552568
 O         0.335323         1.893014         1.970870
 C         1.582290         1.162359         1.902608
 C         2.397236         2.160222         1.239756
 C         1.576641         1.813570         0.030509
 O         1.701194         2.301706        -1.301494
 C         1.098796         0.464499         0.527211
 C         0.976738        -0.801178        -0.280150
 H        -1.925391         2.014821         0.429340
 H        -0.738806         3.280129         0.690113
 H        -0.846899         2.779377        -1.041628
 H         1.940512         0.430417         2.762390
 H         2.299071         3.245796         1.615061
 H         3.435378         1.847056         1.052472
 H         2.631283         2.364801        -1.513693
 H         0.546924        -1.566739         0.390688
 H         0.489181        -0.537949        -1.319927
 H         1.962232        -1.155493        -0.445626
