19
Iteration:   622
 C        -0.981202         2.163266        -0.167668
 C         0.203204         1.733307         0.611494
 O         0.321606         1.909174         2.032221
 C         1.523641         1.113734         1.896888
 C         2.595500         2.025656         1.234251
 C         1.682245         1.960312         0.048852
 O         1.685342         2.328534        -1.259538
 C         1.185228         0.617345         0.527036
 C         0.784421        -0.657653        -0.234064
 H        -1.949212         1.679543         0.140198
 H        -1.216864         3.222285        -0.047662
 H        -0.899024         2.004991        -1.265199
 H         1.755774         0.458043         2.891984
 H         2.729964         3.026032         1.818481
 H         3.563092         1.553342         0.922144
 H         2.484099         2.072025        -1.705078
 H         0.408837        -1.384530         0.445886
 H         0.113849        -0.375029        -1.036263
 H         1.673900        -1.161625        -0.543180
