19
Iteration:  2097
 C        -0.940296         2.252466        -0.091904
 C         0.273746         1.812295         0.639785
 O         0.298285         1.689705         2.099933
 C         1.505368         1.049121         1.822852
 C         2.525457         2.221733         1.284122
 C         1.753878         1.978579        -0.027439
 O         1.777699         2.314505        -1.424274
 C         1.040303         0.636556         0.418281
 C         0.747764        -0.725482        -0.074966
 H        -1.662534         1.441604         0.258428
 H        -1.369379         3.217499         0.152460
 H        -0.891957         2.136725        -1.231073
 H         2.000304         0.350850         2.644846
 H         2.498232         3.277016         1.822723
 H         3.570984         1.883068         1.074294
 H         2.679509         2.537106        -1.622139
 H         0.232258        -1.263665         0.776306
 H        -0.051016        -0.723670        -1.003952
 H         1.596699        -1.264068        -0.353274
