19
Iteration:  4095
 C        -1.067426         2.406912         0.082767
 C         0.120082         1.855462         0.691027
 O         0.369686         1.924686         2.039156
 C         1.586580         0.949904         1.856723
 C         2.548342         1.898115         1.177731
 C         1.564486         1.961432        -0.063193
 O         1.860121         2.260683        -1.329985
 C         1.081461         0.581134         0.458787
 C         0.879118        -0.711958        -0.256355
 H        -1.997771         1.831573         0.307578
 H        -1.203644         3.454769         0.494935
 H        -0.754121         2.474033        -1.007339
 H         1.719749         0.339683         2.744915
 H         2.841386         2.876145         1.685058
 H         3.472684         1.291016         0.894039
 H         2.216620         3.182896        -1.481948
 H         0.048820        -1.282527         0.187886
 H         0.373785        -0.601058        -1.213231
 H         1.750558        -1.462324        -0.348239
