19
Iteration:   910
 C        -0.951864         2.247493        -0.155502
 C         0.186866         1.822001         0.661754
 O         0.279627         1.947965         2.112060
 C         1.547091         1.053314         1.912310
 C         2.596702         1.918256         1.189636
 C         1.573504         1.960544        -0.033771
 O         1.658071         2.503304        -1.294254
 C         1.106741         0.581433         0.473244
 C         0.924811        -0.826050        -0.153794
 H        -1.749706         1.656687         0.077007
 H        -1.216549         3.287052        -0.194229
 H        -0.658301         2.024014        -1.172606
 H         1.588156         0.287079         2.708784
 H         3.077644         2.822007         1.645446
 H         3.383301         1.376497         0.669305
 H         2.501021         2.227310        -1.759347
 H         0.126220        -1.379780         0.334869
 H         0.926482        -0.787684        -1.173025
 H         1.894835        -1.437010         0.041868
