19
Iteration:  1335charge 0 multiplicity 1
 C        -1.052264         2.183094        -0.113424
 C         0.227837         1.864005         0.547986
 O         0.384452         2.027103         2.016370
 C         1.509700         1.107128         1.965087
 C         2.624486         1.851453         1.233010
 C         1.605635         1.921806         0.028236
 O         1.738267         2.451131        -1.268006
 C         1.030020         0.564950         0.479900
 C         0.884386        -0.753489        -0.188433
 H        -1.857864         1.588685         0.391032
 H        -1.302515         3.236157        -0.127655
 H        -1.049188         1.873229        -1.167789
 H         1.711200         0.503066         2.826913
 H         2.908415         2.840515         1.626603
 H         3.498801         1.256534         0.988637
 H         2.325857         1.873783        -1.762770
 H         0.279912        -1.487081         0.433749
 H         0.401691        -0.644876        -1.258326
 H         1.855567        -1.176859        -0.366974
