19
Iteration:  3387charge 0 multiplicity 1
 C        -1.115542         2.242516         0.005783
 C         0.171233         1.845039         0.577178
 O         0.323947         1.976684         1.967256
 C         1.476492         1.055353         1.932453
 C         2.613431         1.835754         1.173208
 C         1.671106         1.900748        -0.012589
 O         1.792928         2.416121        -1.270008
 C         1.006330         0.609499         0.486885
 C         1.000616        -0.669042        -0.225420
 H        -1.757173         1.787268         0.664206
 H        -1.230525         3.276907         0.297627
 H        -1.493772         1.928050        -0.953718
 H         1.694476         0.620688         2.921792
 H         3.004874         2.795660         1.573729
 H         3.344892         0.996284         1.094612
 H         2.457001         1.869315        -1.781480
 H         0.274277        -1.427121         0.218176
 H         0.527398        -0.539291        -1.245727
 H         2.116289        -1.052796        -0.217286
