19
Iteration:  3495
 C        -1.064471         2.226389        -0.067444
 C         0.199111         1.858020         0.562334
 O         0.360706         1.882446         2.125453
 C         1.544815         0.988228         1.819625
 C         2.583920         1.982012         1.216745
 C         1.666426         1.916714        -0.089709
 O         1.820895         2.527699        -1.302804
 C         0.991911         0.592182         0.482545
 C         0.810913        -0.787584        -0.082349
 H        -1.803026         1.359696         0.087759
 H        -1.444588         3.301011         0.182001
 H        -0.892181         2.408956        -1.207060
 H         1.832616         0.320247         2.643634
 H         2.633886         3.025232         1.597904
 H         3.575243         1.542762         0.865281
 H         2.515748         2.054249        -1.782434
 H         0.149790        -1.346764         0.447029
 H         0.644972        -0.828462        -1.161183
 H         1.782716        -1.334036         0.049447
