19
Iteration:  3710
 C        -1.147727         2.262760        -0.072582
 C         0.176029         1.748444         0.607874
 O         0.345029         1.832775         2.089338
 C         1.581930         1.042396         1.812204
 C         2.612052         2.116721         1.227315
 C         1.684212         2.000855         0.024905
 O         1.877234         2.434311        -1.324977
 C         1.064778         0.562074         0.482442
 C         0.792203        -0.790320        -0.160747
 H        -1.942467         1.569871         0.113355
 H        -1.246932         3.431390         0.189193
 H        -0.960175         2.367214        -1.116186
 H         1.978431         0.267666         2.519503
 H         2.534444         3.033341         1.856298
 H         3.631648         1.773618         1.078546
 H         2.114559         1.670521        -1.841466
 H        -0.163132        -1.271782         0.284299
 H         0.494534        -0.535969        -1.217124
 H         1.541195        -1.521748        -0.168117
