19
Iteration:   246
 C        -1.110873         2.214536        -0.063416
 C         0.154830         1.851946         0.614089
 O         0.340719         2.111366         1.974986
 C         1.520277         1.043814         1.931150
 C         2.624502         1.870159         1.122672
 C         1.577047         1.968132        -0.014508
 O         1.840108         2.456080        -1.269828
 C         0.918214         0.461688         0.600589
 C         1.007021        -0.768705        -0.174737
 H        -1.848061         1.392060         0.289967
 H        -1.393209         3.320484         0.062656
 H        -1.117573         2.105907        -1.164191
 H         1.765482         0.364250         2.824179
 H         2.952298         2.735680         1.648860
 H         3.383382         1.214003         0.752089
 H         2.573237         2.068044        -1.795402
 H         0.608684        -1.805446         0.466795
 H         0.477085        -0.702288        -1.176738
 H         2.101906        -1.085277        -0.395363
