19
Iteration:   380
 C        -1.154267         2.115989        -0.137726
 C         0.135494         1.847107         0.584459
 O         0.399813         2.016871         2.042988
 C         1.509543         1.063940         1.865937
 C         2.687070         1.959230         1.243636
 C         1.686380         1.980315         0.013672
 O         1.800423         2.410877        -1.256810
 C         0.984227         0.643104         0.454840
 C         0.876933        -0.783575        -0.155956
 H        -1.862144         1.396052         0.161834
 H        -1.428589         3.132341         0.171332
 H        -1.167181         2.051784        -1.219935
 H         1.808923         0.383082         2.596840
 H         3.101523         2.703051         1.761964
 H         3.318025         1.159706         1.138642
 H         2.629081         2.258471        -1.730844
 H         0.169707        -1.422105         0.554742
 H         0.397666        -0.987507        -1.169423
 H         1.818696        -1.048960        -0.286972
