19
Iteration:  3094charge 0 multiplicity 1
 C        -1.171473         2.250107        -0.076836
 C         0.194900         1.811612         0.554738
 O         0.381758         1.912653         1.978444
 C         1.522947         1.125023         1.915807
 C         2.556982         1.925913         1.168832
 C         1.661657         1.956360         0.053705
 O         1.858167         2.548779        -1.281139
 C         1.052585         0.554101         0.513253
 C         0.841188        -0.865285        -0.166811
 H        -1.922238         1.519530         0.272550
 H        -1.534586         3.216502         0.395597
 H        -1.124435         2.401181        -1.228621
 H         1.895832         0.522532         2.861532
 H         2.896657         2.845494         1.694256
 H         3.363739         1.213971         0.931841
 H         2.614106         2.037256        -1.688268
 H         0.241919        -1.530011         0.546307
 H         0.549798        -0.877029        -1.210901
 H         1.968445        -1.444596        -0.303435
