19
Iteration:  1093charge 0 multiplicity 1
 C        -0.981447         2.294561        -0.155571
 C         0.225965         1.784186         0.540675
 O         0.342271         1.835703         2.068341
 C         1.532638         0.999963         1.884120
 C         2.577236         2.034336         1.123722
 C         1.611714         1.929450         0.004286
 O         1.715232         2.466568        -1.237780
 C         1.070215         0.549244         0.523629
 C         0.886831        -0.737272        -0.061953
 H        -1.972646         1.794978         0.175651
 H        -1.051917         3.396829        -0.246826
 H        -0.941334         2.003758        -1.257488
 H         1.889259         0.329349         2.653924
 H         2.554873         3.036603         1.615460
 H         3.527025         1.572855         0.933560
 H         2.519113         2.288582        -1.701442
 H        -0.074008        -1.170467         0.379621
 H         0.558017        -0.565825        -1.257743
 H         1.686286        -1.406948         0.097585
