19
Iteration:  2472
 C        -1.154424         2.369437         0.069640
 C         0.127026         1.802820         0.579673
 O         0.292924         1.731376         2.050778
 C         1.566388         1.027069         1.770748
 C         2.493539         2.088948         1.265265
 C         1.602075         2.056848        -0.012213
 O         1.942721         2.423897        -1.363123
 C         1.038953         0.615109         0.339785
 C         1.003778        -0.826504        -0.076020
 H        -2.098740         1.891541         0.136463
 H        -1.379400         3.457175         0.396105
 H        -0.965366         2.467398        -0.984565
 H         1.797368         0.334730         2.416068
 H         2.717161         2.890728         1.943023
 H         3.431208         1.534459         0.983337
 H         2.043198         1.529586        -1.787405
 H         0.737035        -1.433067         0.816602
 H         0.515537        -1.232763        -1.016079
 H         1.998152        -1.154380        -0.171966
