19
Iteration:  1658
 C        -0.889970         2.359318        -0.080292
 C         0.225553         1.745583         0.596122
 O         0.286112         1.832402         2.046695
 C         1.554900         1.006400         1.839577
 C         2.508532         2.046469         1.230991
 C         1.628272         1.937389        -0.037245
 O         1.705710         2.419394        -1.384421
 C         1.105459         0.579363         0.476962
 C         0.853050        -0.787258        -0.031159
 H        -1.963017         1.944560         0.051910
 H        -0.841427         3.441229         0.331714
 H        -0.743393         2.487659        -1.050352
 H         1.900706         0.489290         2.765910
 H         2.469779         3.047985         1.710982
 H         3.493509         1.715275         1.018444
 H         2.274039         1.766478        -1.907615
 H         0.056071        -1.147864         0.600733
 H         0.612964        -0.653395        -1.126647
 H         1.731574        -1.401102         0.047330
