19
Iteration:  3025charge 0 multiplicity 1
 C        -0.974959         2.315868        -0.141424
 C         0.214753         1.699499         0.638902
 O         0.301723         1.782369         2.022394
 C         1.579794         1.020272         1.818297
 C         2.552054         2.103065         1.252029
 C         1.663911         1.962319        -0.034654
 O         1.748905         2.469515        -1.308427
 C         1.158399         0.537916         0.453496
 C         0.734352        -0.766944        -0.064526
 H        -1.967084         1.865252         0.182593
 H        -1.064523         3.472543         0.041388
 H        -0.838325         2.163350        -1.211132
 H         1.818100         0.473766         2.720707
 H         2.537384         3.021822         1.815983
 H         3.503310         1.569370         1.148151
 H         2.665013         2.677027        -1.562905
 H         0.247999        -1.303513         0.768674
 H         0.132271        -0.663789        -1.041654
 H         1.708282        -1.405160        -0.371998
