19
Iteration:  3443
 C        -0.872764         2.483480        -0.069047
 C         0.189753         1.744959         0.624507
 O         0.313452         1.726570         2.028375
 C         1.570579         1.055305         1.884183
 C         2.493836         2.098056         1.191147
 C         1.596287         1.861710        -0.048537
 O         1.673129         2.450525        -1.343984
 C         1.071929         0.543564         0.491161
 C         0.892203        -0.868590        -0.081579
 H        -1.821396         2.236452         0.201089
 H        -0.805244         3.514371         0.254477
 H        -0.756658         2.502393        -1.133501
 H         1.802938         0.599189         2.790914
 H         2.492347         3.153853         1.454525
 H         3.565751         1.909012         1.232936
 H         2.569631         2.314495        -1.638754
 H         0.379139        -1.711304         0.502624
 H         0.310352        -0.665350        -1.008952
 H         1.861124        -1.349261        -0.526837
