19
Iteration:  1956
 C        -0.999449         2.275939         0.048358
 C         0.264294         1.755872         0.640956
 O         0.247685         1.917113         2.027902
 C         1.605122         1.150114         1.926048
 C         2.506544         2.193037         1.223860
 C         1.735236         1.811611         0.037178
 O         1.832357         2.316363        -1.373475
 C         1.087282         0.450930         0.509520
 C         0.759763        -0.744630        -0.318219
 H        -1.927491         2.093521         0.713151
 H        -0.948069         3.324711        -0.118197
 H        -1.232382         1.872041        -1.001096
 H         1.991531         0.605212         2.928601
 H         2.036229         3.127771         1.576519
 H         3.550835         2.248149         1.232201
 H         2.435558         1.667981        -1.737128
 H        -0.136798        -1.325472        -0.031497
 H         0.506441        -0.317446        -1.340850
 H         1.636375        -1.382374        -0.521573
