19
Iteration:  3703
 C        -1.122977         2.290141        -0.074512
 C         0.167568         1.808224         0.636162
 O         0.367529         1.785138         2.097030
 C         1.579573         1.063894         1.804575
 C         2.538243         2.087816         1.171375
 C         1.684084         1.936167        -0.009414
 O         1.892972         2.459988        -1.289929
 C         1.008578         0.545651         0.436704
 C         0.803460        -0.739633        -0.133772
 H        -1.960656         1.562570         0.128150
 H        -1.254784         3.233845         0.354003
 H        -0.893628         2.351512        -1.208073
 H         1.886750         0.512510         2.671719
 H         2.587428         3.029395         1.673524
 H         3.551735         1.638258         1.053981
 H         2.233358         1.678122        -1.753938
 H         0.057567        -1.275247         0.497728
 H         0.651812        -0.761493        -1.248203
 H         1.766095        -1.424600        -0.073055
