19
Iteration:  1679
 C        -0.957978         2.434664        -0.085971
 C         0.240983         1.772368         0.581473
 O         0.327388         1.823495         2.006781
 C         1.575463         1.084010         1.887505
 C         2.516363         2.227722         1.191887
 C         1.659835         1.839417         0.010272
 O         1.724384         2.406766        -1.264594
 C         1.127104         0.488887         0.451296
 C         0.790830        -0.912364        -0.133008
 H        -1.913729         2.082973         0.283230
 H        -0.813410         3.522150         0.146389
 H        -0.978829         2.342485        -1.109615
 H         1.857957         0.523982         2.815739
 H         2.487384         3.253543         1.553344
 H         3.440180         1.762225         1.211977
 H         2.217102         1.746808        -1.753170
 H         0.143399        -1.456163         0.561685
 H         0.312763        -0.878729        -1.176863
 H         1.681940        -1.432605        -0.268440
