19
Iteration:   938
 C        -1.060895         2.255889        -0.155716
 C         0.171660         1.757988         0.558766
 O         0.390048         1.921673         2.026149
 C         1.576165         1.107488         1.878459
 C         2.638722         1.978263         1.258000
 C         1.620282         1.882047         0.022497
 O         1.711324         2.453814        -1.241679
 C         0.964164         0.566951         0.550216
 C         0.927700        -0.745825        -0.187467
 H        -2.043468         1.583058         0.085665
 H        -1.443988         3.294055         0.081267
 H        -0.864535         2.234865        -1.235052
 H         1.589985         0.405391         2.749515
 H         2.946505         2.937562         1.716861
 H         3.594756         1.517597         0.934697
 H         2.341706         1.990123        -1.873276
 H         0.287476        -1.476822         0.329462
 H         0.674413        -0.612067        -1.330676
 H         1.932561        -1.140556        -0.119189
