19
Iteration:  3264
 C        -0.984755         2.276295        -0.204680
 C         0.227361         1.821034         0.612563
 O         0.400677         1.938042         2.015635
 C         1.520805         1.043624         1.856202
 C         2.583061         1.972269         1.156251
 C         1.634569         1.888685         0.029306
 O         1.743656         2.591644        -1.167390
 C         0.962650         0.560036         0.422256
 C         0.836243        -0.913237        -0.081837
 H        -1.751819         1.572350        -0.074259
 H        -1.280054         3.237126         0.194716
 H        -0.813172         2.407620        -1.256190
 H         1.723275         0.579073         2.854796
 H         2.854839         2.967967         1.544921
 H         3.355685         1.270937         0.800019
 H         2.435639         2.078597        -1.624084
 H         0.357038        -1.452569         0.770808
 H         0.231892        -1.073599        -1.084844
 H         1.909683        -1.465746        -0.193913
