19
Iteration:  4396charge 0 multiplicity 1
 C        -1.076794         2.425664         0.006887
 C         0.275145         1.833300         0.581160
 O         0.336417         1.813023         2.145937
 C         1.572198         1.028398         1.745520
 C         2.612808         2.027334         1.237847
 C         1.666326         1.930795         0.022535
 O         1.826605         2.293976        -1.370955
 C         1.066581         0.567766         0.424626
 C         0.713167        -0.771134        -0.151422
 H        -1.719850         1.740011         0.603641
 H        -0.963303         3.498542        -0.006640
 H        -1.198312         2.224661        -1.142071
 H         2.082489         0.264330         2.299632
 H         2.685741         2.955790         1.845614
 H         3.607694         1.501995         0.973390
 H         1.984870         3.287700        -1.362776
 H        -0.123667        -1.260532         0.376739
 H         0.294816        -0.601333        -1.194104
 H         1.486050        -1.467922        -0.217174
