19
Iteration:  3741charge 0 multiplicity 1
 C        -0.979979         2.087959        -0.002660
 C         0.317205         1.803855         0.556922
 O         0.357038         1.866947         2.026940
 C         1.487973         1.131935         1.914503
 C         2.521401         2.050757         1.210415
 C         1.727718         1.919859         0.056802
 O         1.742170         2.367581        -1.273673
 C         1.141437         0.586829         0.469888
 C         0.728596        -0.606257        -0.304534
 H        -1.797251         1.562405         0.442449
 H        -1.411106         3.148628         0.085732
 H        -0.959555         1.894319        -1.025642
 H         1.980544         0.608445         2.767330
 H         2.534660         3.028521         1.809627
 H         3.498158         1.577184         1.204629
 H         2.374592         1.790211        -1.791489
 H        -0.182710        -0.956884         0.116001
 H         0.328367        -0.353258        -1.249897
 H         1.414389        -1.380068        -0.245093
