19
Iteration:  1421
 C        -1.121819         2.341558         0.045865
 C         0.241432         1.825816         0.534503
 O         0.314810         1.930896         2.014269
 C         1.510806         1.086050         1.891167
 C         2.488019         2.037254         1.256754
 C         1.706982         1.902106        -0.058183
 O         1.859918         2.391589        -1.343315
 C         1.097703         0.558688         0.433777
 C         0.835936        -0.853997        -0.121781
 H        -1.825744         1.458942         0.264525
 H        -1.346438         3.304479         0.480793
 H        -0.972467         2.457909        -1.031316
 H         1.923672         0.581641         2.683422
 H         2.691613         3.068657         1.594435
 H         3.412831         1.440370         1.232719
 H         2.459385         1.828013        -1.845237
 H         0.013504        -1.420171         0.354824
 H         0.690739        -0.790184        -1.157203
 H         1.742175        -1.483278        -0.119164
