19
Iteration:  2089charge 0 multiplicity 1
 C        -0.980939         2.252466        -0.042383
 C         0.280697         1.834316         0.591212
 O         0.231543         1.686585         2.114517
 C         1.550529         1.055258         1.782304
 C         2.533842         2.160855         1.210041
 C         1.734391         2.010941        -0.066541
 O         1.794465         2.322449        -1.387957
 C         1.074409         0.623024         0.432483
 C         0.772902        -0.743971        -0.028448
 H        -1.839956         1.656547         0.164492
 H        -1.117592         3.218468         0.361552
 H        -0.749651         2.357949        -1.220433
 H         1.731821         0.322303         2.653444
 H         2.313184         3.153319         1.593428
 H         3.579849         1.981337         1.390065
 H         2.700553         2.444124        -1.655800
 H         0.291000        -1.372583         0.727269
 H         0.076636        -0.665424        -0.833744
 H         1.700200        -1.194324        -0.372610
