19
Iteration:  3269
 C        -0.951797         2.266270        -0.179179
 C         0.207385         1.814296         0.610422
 O         0.392613         1.961099         1.991384
 C         1.543863         1.051182         1.841613
 C         2.592809         1.975259         1.154016
 C         1.615940         1.890122         0.029002
 O         1.731210         2.552476        -1.137388
 C         1.001572         0.508410         0.401329
 C         0.828883        -0.870250        -0.095689
 H        -1.874938         1.566796        -0.110671
 H        -1.300939         3.235369         0.269067
 H        -0.784112         2.377331        -1.291049
 H         1.642512         0.584831         2.827025
 H         2.750430         2.933489         1.688397
 H         3.529735         1.421898         0.866134
 H         2.470743         2.194048        -1.690891
 H         0.255030        -1.423063         0.680221
 H         0.227876        -1.028581        -0.920142
 H         1.732491        -1.324731        -0.137245
