19
Iteration:  1612
 C        -1.058919         2.220238        -0.047826
 C         0.206819         1.767203         0.582460
 O         0.376239         2.093494         2.029038
 C         1.527915         1.087969         1.912952
 C         2.546417         1.893680         1.114189
 C         1.574833         1.907808        -0.065583
 O         1.847055         2.437484        -1.257352
 C         0.970505         0.539126         0.541747
 C         0.901335        -0.763372        -0.144589
 H        -1.717590         1.405265         0.086543
 H        -1.520862         3.073678         0.532169
 H        -1.088013         2.460565        -1.146648
 H         1.658417         0.222188         2.658662
 H         2.913403         2.763432         1.626357
 H         3.368270         1.216100         0.897524
 H         2.727842         2.234845        -1.654751
 H         0.096848        -1.433978         0.232455
 H         0.859584        -0.620409        -1.321783
 H         1.794755        -1.267476         0.005904
