19
Iteration:   579charge 0 multiplicity 1
 C        -1.146515         2.264340         0.002168
 C         0.172496         1.725470         0.568870
 O         0.326997         1.926819         2.092683
 C         1.555011         1.046882         1.896977
 C         2.458942         2.160392         1.216962
 C         1.631640         1.871264        -0.078972
 O         1.972829         2.400196        -1.329196
 C         1.091766         0.531043         0.442770
 C         0.843311        -0.739369        -0.174763
 H        -2.076527         1.664141         0.235913
 H        -1.102997         3.284652         0.410187
 H        -0.968722         2.427544        -1.101649
 H         1.896001         0.246335         2.759391
 H         2.528637         3.185413         1.651752
 H         3.467702         1.744150         1.127479
 H         2.549227         1.753270        -1.769486
 H         0.235859        -1.507553         0.468016
 H         0.365739        -0.658801        -1.160392
 H         1.724731        -1.318387        -0.344211
