19
Iteration:  2052charge 0 multiplicity 1
 C        -1.079824         2.318743        -0.022639
 C         0.153146         1.742786         0.512225
 O         0.369663         1.976357         1.934299
 C         1.540670         1.106895         1.877855
 C         2.582984         2.030451         1.139676
 C         1.551067         1.982883         0.014433
 O         1.835350         2.506874        -1.221628
 C         1.013965         0.469926         0.505295
 C         0.927874        -0.984046        -0.093150
 H        -2.084589         1.778166         0.013924
 H        -1.172972         3.269728         0.584979
 H        -0.936698         2.715459        -0.985000
 H         1.867529         0.532239         2.811680
 H         2.673590         3.052029         1.681573
 H         3.544129         1.491849         0.945486
 H         2.435630         1.893998        -1.648078
 H         0.415510        -1.782806         0.489654
 H         0.475003        -0.972893        -1.203609
 H         1.915744        -1.344223        -0.318169
