19
Iteration:  2294charge 0 multiplicity 1
 C        -1.077772         2.202779        -0.113254
 C         0.120221         1.812085         0.653825
 O         0.340114         1.909371         2.076969
 C         1.497050         0.996732         1.841747
 C         2.603376         1.880234         1.136928
 C         1.568346         2.021412         0.064635
 O         1.813496         2.463215        -1.303947
 C         1.037254         0.675177         0.497322
 C         1.029860        -0.673881        -0.126251
 H        -1.745557         1.304637        -0.124243
 H        -1.559602         3.139411         0.133854
 H        -0.661890         2.333033        -1.207804
 H         1.700378         0.125054         2.560117
 H         3.016712         2.895071         1.482175
 H         3.444102         1.256972         0.773691
 H         1.856530         1.582512        -1.712372
 H         0.618650        -1.366241         0.655408
 H         0.235742        -0.815069        -1.020590
 H         1.989737        -1.007576        -0.379086
