19
Iteration:  4963
 C        -1.069030         2.391784         0.125677
 C         0.180103         1.838187         0.656063
 O         0.340706         1.693801         2.145600
 C         1.603742         1.037562         1.774558
 C         2.695920         2.141313         1.128824
 C         1.585319         1.983312         0.011330
 O         1.898377         2.257124        -1.278494
 C         0.956663         0.615978         0.398404
 C         0.767878        -0.747633        -0.321071
 H        -1.920637         1.898532         0.495286
 H        -1.126308         3.470580         0.044661
 H        -0.984720         2.071468        -0.944213
 H         1.849941         0.286886         2.543554
 H         2.798267         3.127727         1.537726
 H         3.635811         1.573788         0.966821
 H         1.961075         3.217076        -1.519383
 H        -0.030551        -1.422978         0.304611
 H         0.418029        -0.788039        -1.389662
 H         1.625185        -1.416600        -0.212867
