19
Iteration:   813charge 0 multiplicity 1
 C        -1.069018         2.140823        -0.043705
 C         0.153598         1.853125         0.625172
 O         0.360654         1.958386         2.064978
 C         1.505931         1.101308         1.898226
 C         2.524981         2.034797         1.225420
 C         1.585271         1.960408         0.037951
 O         1.845558         2.343883        -1.294120
 C         1.087796         0.606048         0.434646
 C         0.885021        -0.745927        -0.269856
 H        -1.808148         1.474445         0.276976
 H        -1.421332         3.221092         0.075042
 H        -0.990223         2.078477        -1.193566
 H         1.834902         0.439342         2.752047
 H         2.933535         2.927263         1.713391
 H         3.339547         1.407080         0.759891
 H         2.735787         1.875074        -1.471657
 H         0.580181        -1.477097         0.530603
 H         0.277250        -0.720227        -1.161411
 H         1.826597        -1.090992        -0.524572
