19
Iteration:  1341charge 0 multiplicity 1
 C        -0.981273         2.169659        -0.132412
 C         0.190884         1.897460         0.581382
 O         0.341453         2.015250         2.025280
 C         1.542436         1.108887         1.852865
 C         2.632538         1.887005         1.226786
 C         1.593632         1.887467         0.013239
 O         1.742996         2.419854        -1.242831
 C         1.012053         0.579604         0.561285
 C         0.878240        -0.722993        -0.208017
 H        -1.853003         1.594488         0.364121
 H        -1.362819         3.233240         0.051504
 H        -0.901642         1.774024        -1.137594
 H         1.796638         0.499405         2.758716
 H         2.910661         2.860132         1.706202
 H         3.503685         1.269614         0.923860
 H         2.344235         1.839276        -1.725996
 H         0.257069        -1.485592         0.221925
 H         0.330126        -0.588858        -1.065635
 H         1.893149        -1.259938        -0.372717
