19
Iteration:  2805
 C        -1.040628         2.136032        -0.009344
 C         0.211940         1.737328         0.509954
 O         0.338528         1.925471         1.959498
 C         1.543025         1.077404         1.868944
 C         2.492909         1.992231         1.230783
 C         1.613242         1.985362         0.013602
 O         1.895926         2.584581        -1.250061
 C         1.057715         0.457189         0.471276
 C         0.775548        -0.797773        -0.156803
 H        -1.745619         1.516349         0.585429
 H        -1.130319         3.210331         0.106659
 H        -1.248157         1.958593        -1.113302
 H         1.902763         0.490726         2.662088
 H         2.725105         2.996250         1.560564
 H         3.463987         1.629226         0.917592
 H         2.844449         2.637794        -1.333212
 H         0.099651        -1.394735         0.446365
 H         0.356703        -0.529489        -1.082470
 H         1.827525        -1.355557        -0.262987
