19
Iteration:  4752
 C        -1.102488         2.357240         0.021258
 C         0.145478         1.956809         0.668443
 O         0.411645         1.994008         2.081281
 C         1.566428         1.034317         1.869574
 C         2.674109         1.831401         1.128426
 C         1.606546         1.840115        -0.001918
 O         1.778639         2.282977        -1.215915
 C         0.977369         0.570478         0.476145
 C         0.967878        -0.722377        -0.379111
 H        -1.776635         1.577389         0.516140
 H        -1.390801         3.433071         0.283412
 H        -1.196833         2.347218        -1.047926
 H         1.678798         0.337382         2.661962
 H         3.045193         2.771857         1.646588
 H         3.429584         1.069711         0.879428
 H         1.190810         3.017811        -1.498444
 H         0.087526        -1.393018        -0.015280
 H         0.739809        -0.379181        -1.399403
 H         1.826159        -1.262198        -0.279946
