19
Iteration:   543
 C        -1.161864         2.270149        -0.005050
 C         0.179074         1.919059         0.539385
 O         0.284974         1.892896         2.043749
 C         1.482578         1.045159         1.884653
 C         2.602439         1.952572         1.242265
 C         1.658250         1.949829        -0.002605
 O         1.839413         2.425306        -1.356512
 C         1.034561         0.630516         0.398590
 C         0.975829        -0.845806        -0.096603
 H        -1.872130         1.512694         0.286339
 H        -1.450604         3.265886         0.361553
 H        -1.272332         2.406846        -1.119868
 H         1.753669         0.454129         2.711480
 H         3.148591         2.938954         1.579728
 H         3.386304         1.151731         0.983027
 H         2.654946         2.023471        -1.673458
 H         0.232270        -1.258653         0.390184
 H         0.851944        -1.008067        -1.204008
 H         2.014994        -1.258662         0.140151
