19
Iteration:  3242
 C        -1.056807         2.320438        -0.158254
 C         0.180603         1.831251         0.634168
 O         0.270427         1.880787         2.113796
 C         1.506583         1.030544         1.810000
 C         2.637092         1.829773         1.114548
 C         1.628396         1.972224        -0.079287
 O         1.850221         2.650443        -1.322000
 C         0.981063         0.516168         0.517907
 C         0.941215        -0.830222         0.025846
 H        -1.913493         1.733931        -0.026355
 H        -1.262885         3.350243         0.087143
 H        -0.903530         2.270389        -1.219839
 H         1.562687         0.474516         2.805634
 H         2.819752         2.677007         1.801881
 H         3.404225         1.076913         0.773247
 H         2.395880         2.072939        -1.903396
 H         0.534393        -1.599962         0.749098
 H         0.219161        -0.914686        -0.937905
 H         2.087459        -1.299861        -0.193628
