19
Iteration:  4941
 C        -1.104087         2.256151         0.108024
 C         0.196950         1.749427         0.661270
 O         0.402527         1.818091         2.090926
 C         1.629045         0.991904         1.840779
 C         2.514084         1.987210         1.207455
 C         1.581550         1.983490        -0.033667
 O         1.932728         2.345742        -1.385140
 C         1.110113         0.596661         0.414856
 C         0.732269        -0.613863        -0.272973
 H        -1.919299         1.781171         0.605471
 H        -1.153151         3.337045         0.290957
 H        -1.039181         2.103058        -0.972698
 H         2.013304         0.395933         2.693159
 H         2.695736         2.952544         1.634802
 H         3.423851         1.368419         1.011901
 H         1.918673         3.298661        -1.488792
 H        -0.257037        -0.999526         0.284219
 H         0.412519        -0.399690        -1.320729
 H         1.327066        -1.510455        -0.161813
