19
Iteration:  3480charge 0 multiplicity 1
 C        -0.986904         2.342694        -0.071810
 C         0.237713         1.820270         0.602997
 O         0.346910         1.804506         1.936133
 C         1.556246         1.056964         1.858094
 C         2.581132         2.058942         1.206199
 C         1.661896         1.941034         0.030399
 O         1.711476         2.486485        -1.267106
 C         1.079870         0.528790         0.376432
 C         0.835234        -0.827191        -0.044731
 H        -1.864349         1.625851         0.160177
 H        -1.187994         3.291821         0.428474
 H        -0.865852         2.405731        -1.168050
 H         1.793118         0.371241         2.743027
 H         2.480089         2.999671         1.819570
 H         3.510870         1.479896         1.155950
 H         2.234050         1.937130        -1.848491
 H        -0.009562        -1.275809         0.617658
 H         0.368263        -0.784544        -1.044499
 H         1.721160        -1.391006        -0.083209
