19
Iteration:  3257charge 0 multiplicity 1
 C        -1.022965         2.301106        -0.193538
 C         0.213188         1.853818         0.559751
 O         0.370310         1.906206         2.076193
 C         1.499447         1.055738         1.900592
 C         2.572788         1.911701         1.152326
 C         1.618558         1.932666        -0.006663
 O         1.785894         2.635183        -1.239369
 C         0.960223         0.570074         0.472934
 C         0.871213        -0.967666        -0.046838
 H        -1.806335         1.519925        -0.000014
 H        -1.386751         3.340250         0.080072
 H        -0.655994         2.397512        -1.287463
 H         1.936180         0.326733         2.687486
 H         3.091520         2.874638         1.396152
 H         3.443426         1.190441         0.951861
 H         2.382667         2.097208        -1.748054
 H         0.415426        -1.590305         0.770541
 H         0.392657        -1.004069        -1.003518
 H         1.825879        -1.320385        -0.311759
