19
Iteration:    25charge 0 multiplicity 1
 C        -0.991281         2.397520        -0.028860
 C         0.253425         1.775428         0.588146
 O         0.271158         1.776678         2.052680
 C         1.563814         1.102227         1.900285
 C         2.508606         2.194790         1.283128
 C         1.638803         1.942780         0.007963
 O         1.784543         2.213505        -1.355807
 C         1.155859         0.614671         0.446939
 C         0.850989        -0.767911        -0.219008
 H        -1.968408         2.013470         0.424903
 H        -0.993895         3.511106         0.249766
 H        -1.024837         2.222044        -1.189413
 H         1.852121         0.505753         2.651563
 H         2.394547         3.167049         1.689814
 H         3.522717         1.955155         1.141388
 H         2.090835         1.408987        -1.781401
 H         0.200262        -1.464508         0.505473
 H         0.249743        -0.683354        -1.124717
 H         1.720249        -1.228559        -0.479184
