19
Iteration:  3839charge 0 multiplicity 1
 C        -1.016013         2.434331         0.099748
 C         0.204178         1.774159         0.540963
 O         0.240974         1.849600         1.998886
 C         1.540851         0.986509         1.806341
 C         2.566670         1.996618         1.174025
 C         1.563927         1.964249        -0.018845
 O         1.863725         2.343512        -1.300600
 C         1.108133         0.544569         0.387323
 C         0.973652        -0.793226        -0.104661
 H        -1.967142         2.039900         0.437596
 H        -1.054782         3.502746         0.513136
 H        -1.180407         2.426030        -0.931650
 H         1.660865         0.311718         2.686998
 H         2.670395         2.985103         1.761531
 H         3.527018         1.537751         0.933088
 H         1.337732         3.124184        -1.634191
 H         0.418031        -1.272712         0.727941
 H         0.325387        -0.823533        -1.040312
 H         1.991026        -1.447223        -0.271840
