19
Iteration:  1164charge 0 multiplicity 1
 C        -1.191227         2.201575         0.033285
 C         0.177296         1.746268         0.642348
 O         0.324490         1.970173         1.990494
 C         1.486019         1.131406         1.872019
 C         2.643583         2.003128         1.267011
 C         1.692570         1.969628         0.025320
 O         1.911118         2.377598        -1.366035
 C         1.017576         0.582678         0.441603
 C         0.867883        -0.769126        -0.211892
 H        -1.967407         1.462167         0.274535
 H        -1.560573         3.187651         0.379326
 H        -1.200080         2.370355        -1.144218
 H         1.547617         0.514974         2.841382
 H         2.863328         2.944669         1.751390
 H         3.599474         1.457514         0.964402
 H         2.648269         1.830694        -1.602966
 H         0.407670        -1.518642         0.417604
 H         0.367727        -0.617298        -1.151702
 H         1.895699        -1.206732        -0.577660
