19
Iteration:  2590
 C        -1.035433         2.102191        -0.115434
 C         0.175329         1.777189         0.636638
 O         0.353717         1.890458         2.075539
 C         1.551515         1.073604         1.867740
 C         2.595139         1.998038         1.161664
 C         1.616944         1.996225         0.010635
 O         1.781589         2.512001        -1.231638
 C         1.034002         0.616152         0.469679
 C         0.868390        -0.729597        -0.184074
 H        -1.923562         1.614926         0.256342
 H        -1.246026         3.216887        -0.257994
 H        -0.784504         1.707794        -1.131307
 H         1.851972         0.298889         2.526813
 H         2.764271         2.906137         1.700839
 H         3.533159         1.542143         0.929208
 H         2.396299         1.942298        -1.767060
 H         0.075310        -1.206578         0.424020
 H         0.556337        -0.648515        -1.312310
 H         1.633803        -1.438309        -0.044303
