19
Iteration:  3829charge 0 multiplicity 1
 C        -1.126020         2.406117         0.071104
 C         0.167014         1.782978         0.559058
 O         0.310554         1.846953         2.026537
 C         1.466086         1.028415         1.843053
 C         2.544793         1.992351         1.240769
 C         1.664139         1.947920        -0.051065
 O         1.856837         2.367774        -1.378594
 C         1.140423         0.603044         0.394443
 C         0.946657        -0.845539        -0.127247
 H        -1.882803         1.889952         0.596916
 H        -1.013428         3.518160         0.405515
 H        -1.111873         2.438213        -0.968660
 H         1.728120         0.333275         2.672162
 H         2.993064         2.896883         1.789744
 H         3.397481         1.358027         0.925705
 H         1.578183         3.335550        -1.321936
 H         0.391719        -1.436055         0.621082
 H         0.316073        -1.000580        -1.040102
 H         1.984506        -1.388800        -0.237856
