19
Iteration:  2618charge 0 multiplicity 1
 C        -1.128977         2.291284         0.044729
 C         0.216188         1.760349         0.525521
 O         0.306971         1.835496         1.945650
 C         1.563101         1.131451         1.888526
 C         2.498255         2.100353         1.238079
 C         1.675293         1.933534        -0.046368
 O         1.863806         2.540058        -1.267353
 C         1.136105         0.494161         0.450486
 C         0.857768        -0.908275        -0.144844
 H        -1.896790         1.655235         0.545446
 H        -1.199042         3.329161         0.178780
 H        -1.307618         2.148132        -1.046341
 H         1.906517         0.346881         2.655483
 H         2.388288         3.109360         1.814345
 H         3.619897         1.934476         1.181423
 H         2.511752         2.050772        -1.799287
 H         0.131595        -1.334492         0.553658
 H         0.348446        -0.773869        -1.049114
 H         1.649775        -1.734171        -0.383658
