19
Iteration:  2440charge 0 multiplicity 1
 C        -1.073931         2.290196        -0.060148
 C         0.203293         1.737775         0.547051
 O         0.346455         1.950888         2.005122
 C         1.476797         1.105399         1.912414
 C         2.580266         1.989062         1.164762
 C         1.665810         1.791743        -0.016140
 O         1.691226         2.563691        -1.175116
 C         1.025066         0.490853         0.455352
 C         1.015703        -0.806866        -0.176699
 H        -1.988960         1.763712         0.094297
 H        -1.212232         3.363960         0.295805
 H        -0.902924         2.395197        -1.085966
 H         1.663604         0.522322         2.710904
 H         2.835883         2.988395         1.550626
 H         3.479020         1.311372         0.969491
 H         2.362040         2.085601        -1.713474
 H         0.543744        -1.583257         0.461460
 H         0.489669        -0.819884        -1.161947
 H         2.098722        -1.063568        -0.335022
