19
Iteration:  1146
 C        -1.174807         2.241160         0.037117
 C         0.204542         1.822468         0.508884
 O         0.319544         1.878231         1.961885
 C         1.538876         1.079378         1.879429
 C         2.470504         2.050297         1.204452
 C         1.636362         1.844971        -0.055989
 O         1.943483         2.380407        -1.261114
 C         1.142881         0.606845         0.466969
 C         0.852883        -0.712226        -0.134456
 H        -1.914083         1.605816         0.663004
 H        -1.227098         3.277856         0.420420
 H        -1.369583         2.428959        -0.949074
 H         1.794218         0.437498         2.712718
 H         2.558995         3.036014         1.726523
 H         3.478610         1.595708         1.180188
 H         2.517281         1.922027        -1.848548
 H         0.421204        -1.301760         0.714111
 H         0.449916        -0.628451        -1.218759
 H         1.724686        -1.335868        -0.514076
