19
Iteration:   173
 C        -0.958845         2.252483        -0.053851
 C         0.306626         1.783727         0.615353
 O         0.283403         1.794536         2.048421
 C         1.579104         1.115480         1.853375
 C         2.499473         2.197138         1.245531
 C         1.639989         1.895155         0.000336
 O         1.784590         2.408160        -1.357828
 C         1.196714         0.531049         0.401387
 C         0.714674        -0.769244        -0.106704
 H        -1.848753         1.700517         0.384002
 H        -1.010733         3.378862         0.098940
 H        -0.932458         1.954577        -1.089107
 H         1.743351         0.425135         2.796789
 H         2.279722         3.231812         1.677058
 H         3.576419         1.868896         1.122940
 H         2.483021         1.849080        -1.828841
 H        -0.159307        -0.962989         0.485089
 H         0.265952        -0.760093        -1.129315
 H         1.480551        -1.628623        -0.053633
