19
Iteration:  2105charge 0 multiplicity 1
 C        -0.964520         2.204223        -0.117879
 C         0.218873         1.855152         0.616542
 O         0.334775         1.750792         2.088962
 C         1.583334         1.046348         1.894617
 C         2.532804         2.215001         1.289812
 C         1.664730         1.922264         0.033834
 O         1.775688         2.327891        -1.409692
 C         1.134576         0.627448         0.386312
 C         0.697234        -0.719233        -0.123482
 H        -1.789307         1.465555         0.169707
 H        -1.456686         3.255027        -0.020494
 H        -0.802852         2.024343        -1.102044
 H         1.981179         0.407094         2.640876
 H         2.578434         3.160545         1.881194
 H         3.545103         1.738483         1.144771
 H         2.659005         2.615432        -1.615202
 H         0.193354        -1.233333         0.708164
 H         0.039980        -0.733043        -1.068033
 H         1.574561        -1.407199        -0.385160
