19
Iteration:  2466charge 0 multiplicity 1
 C        -1.089917         2.360939         0.043653
 C         0.155872         1.843134         0.614232
 O         0.259522         1.794414         2.046886
 C         1.559660         0.992531         1.774885
 C         2.485519         2.048693         1.247999
 C         1.590979         2.023459        -0.017837
 O         1.917139         2.486176        -1.374413
 C         1.010528         0.560104         0.339049
 C         1.035983        -0.850401        -0.053939
 H        -2.088259         1.820644         0.239961
 H        -1.387112         3.309695         0.408173
 H        -0.984409         2.475502        -1.084022
 H         1.975023         0.315263         2.765276
 H         2.699319         2.952550         1.889110
 H         3.350604         1.469224         0.893200
 H         2.010771         1.548818        -1.666047
 H         0.661224        -1.531227         0.719273
 H         0.500966        -1.011536        -0.977153
 H         2.144792        -1.202532        -0.348228
