19
Iteration:   187charge 0 multiplicity 1
 C        -0.962264         2.229441        -0.080066
 C         0.304120         1.779043         0.545461
 O         0.309349         1.792348         2.001729
 C         1.545443         1.067328         1.938671
 C         2.499392         2.136867         1.260532
 C         1.679226         2.045253        -0.015557
 O         1.729881         2.328731        -1.330636
 C         1.169698         0.615441         0.429255
 C         0.697358        -0.753164        -0.103310
 H        -1.729099         1.816767         0.447130
 H        -1.079519         3.233456         0.118352
 H        -0.938493         1.981701        -1.138060
 H         2.016219         0.619831         2.753878
 H         2.652870         3.138000         1.817949
 H         3.552290         1.735690         1.184601
 H         2.459044         1.902111        -1.760332
 H         0.026910        -1.221696         0.528713
 H         0.204900        -0.710163        -1.071704
 H         1.702584        -1.506451        -0.340121
