19
Iteration:  4350
 C        -1.161326         2.352801        -0.031266
 C         0.223199         1.861589         0.713167
 O         0.415424         2.020601         2.110748
 C         1.539142         1.003550         1.889650
 C         2.640293         1.899202         1.122197
 C         1.604424         1.934206        -0.014340
 O         1.879071         2.238467        -1.304677
 C         0.945001         0.509170         0.564140
 C         0.869121        -0.750110        -0.353342
 H        -1.994809         1.679019         0.471079
 H        -1.114590         3.416614         0.279279
 H        -1.271976         2.517945        -1.115854
 H         1.787984         0.365691         2.704066
 H         3.033177         2.856677         1.597678
 H         3.514037         1.286906         0.815305
 H         1.642476         3.146539        -1.605603
 H         0.010990        -1.288286        -0.128119
 H         0.674237        -0.225595        -1.261257
 H         1.788781        -1.264983        -0.348499
