19
Iteration:  1967charge 0 multiplicity 1
 C        -0.995405         2.275760        -0.041020
 C         0.234400         1.761680         0.602580
 O         0.347386         1.887967         2.108396
 C         1.577899         1.148156         1.981752
 C         2.453997         2.155922         1.198767
 C         1.671586         1.771236        -0.087487
 O         1.815585         2.296111        -1.307699
 C         1.047278         0.563101         0.523774
 C         0.818062        -0.701041        -0.313653
 H        -1.823485         1.970237         0.699171
 H        -0.906305         3.329205        -0.034661
 H        -1.256569         1.851940        -1.087329
 H         1.944832         0.581766         2.988256
 H         2.285745         3.218004         1.504115
 H         3.479262         1.938400         1.372001
 H         2.377923         1.781571        -1.937011
 H        -0.084782        -1.281986        -0.055220
 H         0.709866        -0.258343        -1.350961
 H         1.668399        -1.408977        -0.301219
