19
Iteration:  1297charge 0 multiplicity 1
 C        -1.104510         2.330936         0.002477
 C         0.260912         1.801474         0.515814
 O         0.279173         1.880759         1.986609
 C         1.544437         1.068300         1.802080
 C         2.574706         1.988608         1.113757
 C         1.589383         1.913442        -0.036946
 O         1.889766         2.485571        -1.241579
 C         0.978489         0.540574         0.412390
 C         0.904176        -0.822533         0.001650
 H        -1.840848         1.968963         0.834930
 H        -1.155826         3.466128         0.107560
 H        -1.411303         1.833975        -0.977447
 H         1.686091         0.345729         2.657494
 H         2.625770         2.986324         1.593571
 H         3.590542         1.517893         1.001491
 H         2.734310         2.099119        -1.457162
 H         0.227834        -1.507830         0.487237
 H         0.570930        -0.803617        -0.991907
 H         1.990295        -1.242602         0.062430
