19
Iteration:  3846
 C        -0.974744         2.477067         0.069876
 C         0.196541         1.776648         0.607529
 O         0.254890         1.808533         1.952774
 C         1.594669         1.010324         1.796091
 C         2.545330         2.010805         1.137535
 C         1.555521         1.956869         0.038636
 O         1.873284         2.335627        -1.263226
 C         1.034717         0.548832         0.392274
 C         0.953976        -0.806522        -0.088183
 H        -1.942151         1.907392         0.387835
 H        -0.935559         3.432234         0.475682
 H        -1.218330         2.522408        -1.054893
 H         1.797103         0.346527         2.642707
 H         2.424842         2.938631         1.625333
 H         3.560376         1.697736         0.943591
 H         1.146109         2.848195        -1.726712
 H         0.466756        -1.391062         0.705028
 H         0.574334        -0.696542        -1.110300
 H         1.903677        -1.240686        -0.387855
