19
Iteration:  1610
 C        -1.061210         2.222037        -0.027566
 C         0.199277         1.746231         0.577102
 O         0.381923         2.106113         2.038901
 C         1.514477         1.096925         1.920851
 C         2.538813         1.883384         1.126236
 C         1.581529         1.901945        -0.071426
 O         1.855641         2.446180        -1.275013
 C         0.980470         0.544948         0.553586
 C         0.899630        -0.769356        -0.157815
 H        -1.656921         1.382283         0.068360
 H        -1.505323         3.047688         0.504819
 H        -1.142061         2.441541        -1.217109
 H         1.619675         0.237437         2.604930
 H         2.876580         2.770180         1.625398
 H         3.380250         1.174690         0.858895
 H         2.705745         2.229204        -1.648737
 H         0.057233        -1.395948         0.240239
 H         0.860873        -0.583366        -1.290736
 H         1.859787        -1.271614        -0.034952
