19
Iteration:  4681
 C        -1.003939         2.252392         0.082786
 C         0.179208         1.783601         0.647091
 O         0.343633         1.781041         2.139179
 C         1.649542         1.060604         1.817143
 C         2.574641         2.091965         1.225001
 C         1.626892         2.022291         0.020880
 O         1.964370         2.312428        -1.418896
 C         1.037732         0.602520         0.411628
 C         0.586080        -0.744718        -0.302893
 H        -1.819672         1.683723         0.424835
 H        -1.054819         3.289030         0.099840
 H        -1.059679         2.236350        -0.996653
 H         2.023705         0.361864         2.651751
 H         2.552341         2.987731         1.772815
 H         3.465671         1.489174         1.022828
 H         2.280903         3.256912        -1.404155
 H         0.019757        -1.203386         0.466488
 H        -0.039145        -0.714854        -1.206133
 H         1.602389        -1.344692        -0.197990
