19
Iteration:  3229
 C        -1.035693         2.306388        -0.078683
 C         0.116138         1.775037         0.599609
 O         0.281512         1.899231         1.987252
 C         1.519633         0.994579         1.852307
 C         2.587099         1.860215         1.142291
 C         1.614188         1.930976        -0.004611
 O         1.853687         2.565215        -1.271371
 C         0.976534         0.624399         0.402885
 C         0.952525        -0.777469         0.011685
 H        -1.988205         1.883398         0.325340
 H        -1.071519         3.340140         0.194461
 H        -0.921458         2.234565        -1.116987
 H         1.797531         0.355181         2.644390
 H         3.077934         2.742083         1.554123
 H         3.471194         1.284263         0.906388
 H         2.432578         1.983543        -1.786676
 H         0.521994        -1.335322         0.850778
 H         0.354446        -0.992153        -0.931878
 H         2.083453        -1.117897        -0.220601
