19
Iteration:  3796charge 0 multiplicity 1
 C        -1.082783         2.166050        -0.009587
 C         0.194536         1.883808         0.636986
 O         0.352415         1.971538         2.050950
 C         1.508905         1.001506         1.816287
 C         2.581630         1.953082         1.080907
 C         1.576576         1.904892         0.021713
 O         1.872443         2.395898        -1.254270
 C         1.004523         0.600031         0.469670
 C         0.876593        -0.733256        -0.187257
 H        -1.900338         1.597584         0.411500
 H        -1.313561         3.295797         0.119218
 H        -1.099974         1.915301        -1.013123
 H         1.755564         0.250874         2.600052
 H         2.836307         2.937341         1.619143
 H         3.455588         1.444897         0.639939
 H         2.641830         2.942705        -1.021458
 H         0.291554        -1.371371         0.442917
 H         0.643940        -0.633725        -1.226691
 H         1.863265        -1.200380        -0.281679
