19
Iteration:  1000
 C        -1.303809         2.312535         0.045862
 C         0.098137         1.778024         0.592401
 O         0.319193         1.850454         2.081785
 C         1.534089         1.126742         1.867152
 C         2.527018         2.083888         1.245235
 C         1.706901         1.892399        -0.059627
 O         1.957553         2.288883        -1.350695
 C         1.159443         0.601581         0.429141
 C         0.935124        -0.676741        -0.213780
 H        -2.000183         1.669694         0.426607
 H        -1.473216         3.356581         0.239023
 H        -1.174254         2.146591        -1.055535
 H         1.690216         0.334793         2.571688
 H         2.537668         2.962235         1.892979
 H         3.562009         1.642407         1.099841
 H         2.839261         1.838932        -1.572661
 H         0.360116        -1.235501         0.569193
 H         0.255543        -0.553396        -1.131581
 H         1.790053        -1.441664        -0.634057
