19
Iteration:  2411charge 0 multiplicity 1
 C        -0.990518         2.187614        -0.170894
 C         0.284858         1.779520         0.605069
 O         0.361239         1.980029         2.083276
 C         1.503097         1.082102         1.941359
 C         2.608388         1.977673         1.191447
 C         1.569204         1.962805         0.061864
 O         1.602118         2.468196        -1.284281
 C         1.089989         0.475576         0.556674
 C         0.900274        -0.787429        -0.287925
 H        -1.891227         1.519722         0.031109
 H        -1.104160         3.249851        -0.159672
 H        -0.683241         2.012332        -1.205818
 H         1.739628         0.401187         2.918891
 H         3.001677         2.887798         1.707384
 H         3.454810         1.423685         0.786522
 H         2.535083         2.811459        -1.254025
 H         0.106650        -1.381994         0.145342
 H         0.599761        -0.539889        -1.265761
 H         1.927972        -1.316751        -0.271607
