19
Iteration:  1172
 C        -1.132260         2.162601        -0.019262
 C         0.147382         1.858370         0.650153
 O         0.313236         1.994031         2.044195
 C         1.503618         1.119129         1.899674
 C         2.662260         1.992901         1.222654
 C         1.604162         1.984514         0.014882
 O         1.900352         2.356148        -1.341447
 C         1.028454         0.594409         0.470854
 C         0.863979        -0.808363        -0.249656
 H        -1.765706         1.382685         0.237585
 H        -1.520142         3.064322         0.467775
 H        -1.064409         2.355130        -1.170489
 H         1.557909         0.404752         2.729092
 H         2.981938         2.889470         1.755514
 H         3.526070         1.389280         1.001722
 H         2.666523         1.880711        -1.656946
 H         0.473560        -1.631031         0.344092
 H         0.449175        -0.702965        -1.331572
 H         1.838230        -1.098090        -0.509421
