19
Iteration:  1367
 C        -0.985364         2.214425        -0.187711
 C         0.157854         1.802502         0.643325
 O         0.383989         1.912491         2.159507
 C         1.555575         1.110477         2.002432
 C         2.593901         2.032517         1.186311
 C         1.579357         1.920235         0.018956
 O         1.786653         2.275289        -1.330967
 C         1.058064         0.625458         0.525746
 C         0.785935        -0.657287        -0.289546
 H        -1.959356         1.551839        -0.067126
 H        -1.267118         3.227965         0.068661
 H        -0.630933         2.080311        -1.221011
 H         1.904066         0.548275         2.821028
 H         2.671921         3.110303         1.427024
 H         3.566076         1.621541         0.919613
 H         2.606839         1.794491        -1.561334
 H         0.125540        -1.413499         0.237291
 H         0.272945        -0.546050        -1.294519
 H         1.727850        -1.188126        -0.389110
