19
Iteration:  3621
 C        -0.938219         2.350757        -0.063204
 C         0.218909         1.765553         0.604235
 O         0.297753         1.862943         2.137074
 C         1.538733         1.092550         1.870263
 C         2.538075         2.001635         1.189909
 C         1.616721         1.932805        -0.004243
 O         1.739596         2.483173        -1.341906
 C         0.972428         0.573053         0.471645
 C         0.953631        -0.862614        -0.185999
 H        -1.889494         1.926669         0.221496
 H        -0.985724         3.553794         0.042007
 H        -0.849934         2.213017        -1.124046
 H         1.772914         0.336244         2.683111
 H         2.789591         2.980530         1.690129
 H         3.406207         1.423840         0.898024
 H         2.313150         1.799208        -1.681878
 H         0.406161        -1.725365         0.414239
 H         0.337685        -0.818280        -1.103921
 H         1.986609        -1.097223        -0.367448
