19
Iteration:   730
 C        -1.106019         2.321382        -0.086394
 C         0.201453         1.777197         0.550352
 O         0.364855         1.789515         2.039358
 C         1.550108         1.042182         1.828179
 C         2.496546         2.067339         1.196035
 C         1.618110         1.943880         0.001742
 O         1.811729         2.397366        -1.306278
 C         1.061604         0.614791         0.449634
 C         0.923171        -0.754398        -0.050616
 H        -1.986888         1.773693         0.286177
 H        -1.165743         3.292986         0.377588
 H        -0.993690         2.377371        -1.169233
 H         1.859906         0.369132         2.544755
 H         2.323978         3.079346         1.641208
 H         3.576334         1.861760         1.107649
 H         2.660790         1.988563        -1.555633
 H         0.020940        -1.126374         0.431354
 H         0.783405        -0.898569        -1.199383
 H         1.848622        -1.488165         0.117394
