19
Iteration:  3376
 C        -1.140347         2.158793         0.100520
 C         0.272076         1.839439         0.567643
 O         0.290420         2.033061         2.033265
 C         1.405701         1.157802         1.867091
 C         2.651411         1.867527         1.160712
 C         1.688023         1.862717         0.044741
 O         1.841170         2.396184        -1.236937
 C         0.975375         0.596095         0.421641
 C         0.945940        -0.679842        -0.265580
 H        -1.774115         1.638076         0.684518
 H        -1.296154         3.233887         0.077639
 H        -1.214996         1.953251        -0.975728
 H         1.443538         0.367087         2.637416
 H         3.003822         2.867652         1.489194
 H         3.553558         1.219725         0.955469
 H         2.183642         1.708315        -1.866970
 H         0.269272        -1.471664         0.199133
 H         0.827647        -0.408523        -1.367241
 H         2.011653        -1.224712        -0.348901
