19
Iteration:  1716charge 0 multiplicity 1
 C        -1.012873         2.235471        -0.016450
 C         0.212335         1.850679         0.617666
 O         0.369851         1.930180         1.983524
 C         1.477199         1.020166         1.874596
 C         2.510646         1.959624         1.193295
 C         1.576257         1.939714        -0.022766
 O         1.843310         2.365304        -1.331760
 C         0.970768         0.565353         0.537142
 C         0.889744        -0.695948        -0.127759
 H        -1.991185         2.003864         0.586612
 H        -1.012456         3.295921        -0.166425
 H        -0.981469         1.792321        -1.069404
 H         1.818801         0.526897         2.747409
 H         2.968900         2.971368         1.368619
 H         3.413810         1.347135         0.826422
 H         2.747401         2.402738        -1.607624
 H         0.509814        -1.480762         0.539493
 H         0.305873        -0.694437        -0.951612
 H         2.008207        -1.022935        -0.388339
