19
Iteration:  1800charge 0 multiplicity 1
 C        -1.071198         2.347206        -0.044927
 C         0.152553         1.776046         0.659453
 O         0.339522         1.815307         2.062658
 C         1.565308         1.136728         1.878193
 C         2.569294         2.129025         1.240114
 C         1.660463         1.914643        -0.003495
 O         1.865389         2.267551        -1.345769
 C         1.134930         0.581791         0.413539
 C         0.767842        -0.728776        -0.201601
 H        -1.960289         1.626014         0.170592
 H        -1.362383         3.395032         0.302134
 H        -0.951979         2.292162        -1.081072
 H         1.916988         0.691863         2.777968
 H         2.395270         3.158064         1.581605
 H         3.548346         1.817670         1.339965
 H         2.389837         1.516934        -1.761131
 H        -0.049988        -1.241975         0.325114
 H         0.592442        -0.687201        -1.381432
 H         1.552014        -1.406999        -0.058599
