19
Iteration:  4642
 C        -1.058285         2.318105        -0.010101
 C         0.258118         1.838193         0.556341
 O         0.387022         1.875470         2.042139
 C         1.593142         1.014550         1.834798
 C         2.629924         1.979174         1.182256
 C         1.645042         1.939750         0.001545
 O         1.839186         2.407426        -1.221212
 C         1.006288         0.552131         0.360303
 C         0.707062        -0.804664        -0.186540
 H        -1.912329         1.767901         0.505027
 H        -1.306537         3.409350         0.346087
 H        -1.020598         2.179693        -1.145097
 H         2.002546         0.464263         2.664197
 H         3.012515         2.855644         1.829000
 H         3.524217         1.388570         0.887816
 H         1.758567         3.382014        -1.186384
 H         0.133383        -1.489210         0.585228
 H        -0.012966        -0.817983        -1.029250
 H         1.528397        -1.347663        -0.477854
