19
Iteration:  3622
 C        -0.938361         2.352988        -0.065277
 C         0.230167         1.772780         0.597634
 O         0.297190         1.871718         2.133529
 C         1.529550         1.092695         1.866851
 C         2.537093         1.999647         1.188837
 C         1.617026         1.927727        -0.003503
 O         1.733053         2.484799        -1.333857
 C         0.971687         0.571657         0.466365
 C         0.960248        -0.868788        -0.180338
 H        -1.873857         1.945775         0.238398
 H        -0.990796         3.489573         0.097850
 H        -0.841691         2.194364        -1.084193
 H         1.765804         0.309363         2.659481
 H         2.801734         2.960568         1.683942
 H         3.408893         1.430034         0.913269
 H         2.322174         1.817453        -1.696618
 H         0.406592        -1.750944         0.410767
 H         0.328347        -0.815047        -1.105220
 H         1.987773        -1.093816        -0.374038
