19
Iteration:  4979charge 0 multiplicity 1
 C        -1.109779         2.476062         0.032611
 C         0.183925         1.876311         0.681440
 O         0.419725         1.757580         2.114506
 C         1.583263         0.956332         1.825693
 C         2.522230         1.996121         1.184072
 C         1.672734         1.876819        -0.012391
 O         1.807957         2.298584        -1.374080
 C         1.035801         0.574828         0.430129
 C         0.859562        -0.727385        -0.228758
 H        -2.015664         1.968365         0.531428
 H        -1.132872         3.585584         0.199613
 H        -1.335208         2.298257        -1.027917
 H         2.010602         0.346013         2.628568
 H         2.643518         2.975019         1.727577
 H         3.511984         1.587877         0.970846
 H         1.833828         3.269645        -1.290321
 H         0.178114        -1.349389         0.162375
 H         0.534157        -0.436782        -1.219276
 H         1.855192        -1.139092        -0.501979
