19
Iteration:  2104
 C        -0.955318         2.211034        -0.114270
 C         0.221536         1.850011         0.620551
 O         0.332191         1.740586         2.089515
 C         1.570621         1.042150         1.891673
 C         2.532734         2.226443         1.295086
 C         1.678505         1.924460         0.028749
 O         1.775266         2.325752        -1.415506
 C         1.119994         0.630107         0.387904
 C         0.696169        -0.718083        -0.120425
 H        -1.739194         1.468923         0.177853
 H        -1.468441         3.252149        -0.009623
 H        -0.835067         2.037776        -1.105427
 H         1.984406         0.431728         2.593824
 H         2.575847         3.133958         1.862167
 H         3.527651         1.755126         1.117866
 H         2.673541         2.611142        -1.626967
 H         0.215223        -1.225451         0.707661
 H         0.073279        -0.741748        -1.004896
 H         1.596483        -1.412528        -0.388539
