19
Iteration:  1042charge 0 multiplicity 1
 C        -1.083693         2.191335        -0.120521
 C         0.183922         1.798453         0.567982
 O         0.386420         1.994478         1.998771
 C         1.532923         1.046910         1.876122
 C         2.612302         1.986062         1.203334
 C         1.612589         1.872436         0.033183
 O         1.774671         2.484780        -1.202387
 C         1.028008         0.542908         0.534750
 C         0.888571        -0.759685        -0.175925
 H        -1.874705         1.643657         0.242746
 H        -1.304044         3.249910        -0.040286
 H        -1.094334         1.944498        -1.223275
 H         1.767390         0.560619         2.798670
 H         2.852126         2.994045         1.565801
 H         3.455336         1.351307         0.926871
 H         2.346934         1.986131        -1.808996
 H         0.120086        -1.464187         0.094310
 H         0.627554        -0.451092        -1.098098
 H         1.923937        -1.246717        -0.238107
