19
Iteration:  2015charge 0 multiplicity 1
 C        -1.108204         2.227354        -0.109228
 C         0.211463         1.899978         0.599457
 O         0.372004         1.971334         2.044966
 C         1.443650         1.033721         1.868907
 C         2.636910         1.812820         1.170977
 C         1.634774         1.946841         0.027300
 O         1.678233         2.443279        -1.319558
 C         0.982288         0.634339         0.475266
 C         1.022993        -0.723773        -0.091464
 H        -1.843003         1.509634         0.095847
 H        -1.429452         3.285354         0.135676
 H        -0.879678         2.142209        -1.221345
 H         1.742064         0.374934         2.640245
 H         3.131472         2.624249         1.663495
 H         3.466250         1.112230         0.828460
 H         2.456604         1.955972        -1.659738
 H         0.296279        -1.384182         0.401491
 H         0.955578        -0.737715        -1.123115
 H         2.096902        -1.109897         0.319642
