19
Iteration:  3309
 C        -0.982346         2.224085        -0.018912
 C         0.290256         1.811302         0.556668
 O         0.284479         1.750020         2.096781
 C         1.551835         1.178958         1.970882
 C         2.570395         2.099180         1.221215
 C         1.666130         1.955106        -0.030905
 O         1.801195         2.354730        -1.345647
 C         1.138788         0.600055         0.444369
 C         0.628597        -0.746205        -0.241654
 H        -1.655719         1.488311         0.149309
 H        -1.243814         3.235392         0.239199
 H        -0.774264         2.239506        -1.104448
 H         1.977486         0.643654         2.900855
 H         2.498027         3.103178         1.680086
 H         3.604371         1.677111         1.089577
 H         2.703748         2.166543        -1.653175
 H        -0.177594        -1.212757         0.400353
 H         0.488540        -0.565510        -1.376694
 H         1.535729        -1.554044        -0.181476
