19
Iteration:  2386
 C        -1.049914         2.115257        -0.141606
 C         0.207750         1.827217         0.692529
 O         0.301940         1.764613         2.139595
 C         1.640448         1.099106         1.848294
 C         2.584351         2.043939         1.185615
 C         1.652103         1.949505        -0.003785
 O         1.762843         2.381011        -1.312373
 C         1.045788         0.647392         0.452531
 C         0.794928        -0.612965        -0.213921
 H        -1.889127         1.583887         0.184063
 H        -1.220318         3.177138        -0.364795
 H        -0.791983         1.697496        -1.043867
 H         1.876452         0.416063         2.520172
 H         2.485454         2.955972         1.777516
 H         3.683178         1.769180         1.140363
 H         2.742608         2.490763        -1.407969
 H        -0.102743        -1.039371         0.260815
 H         0.697428        -0.588437        -1.266306
 H         1.666565        -1.258180         0.113048
