19
Iteration:  4510charge 0 multiplicity 1
 C        -1.072658         2.324410         0.084410
 C         0.179153         1.833355         0.690135
 O         0.432595         1.840429         2.019612
 C         1.577589         1.040500         1.902180
 C         2.554767         1.919586         1.175586
 C         1.588364         1.889356         0.018437
 O         1.914127         2.228316        -1.378753
 C         0.986879         0.648150         0.455349
 C         0.785470        -0.609090        -0.261755
 H        -2.020996         1.870499         0.336940
 H        -1.161357         3.443742         0.208984
 H        -1.197475         2.263584        -0.980563
 H         1.863372         0.497568         2.861551
 H         2.802008         2.905407         1.628826
 H         3.432881         1.387070         0.876144
 H         1.922834         3.219547        -1.415950
 H         0.049946        -1.339370         0.204297
 H         0.607404        -0.382931        -1.297680
 H         1.661086        -1.164032        -0.467015
