19
Iteration:  4833charge 0 multiplicity 1
 C        -0.972540         2.426183         0.136679
 C         0.223207         1.764078         0.586171
 O         0.338847         1.865962         2.072917
 C         1.580446         0.988443         1.833215
 C         2.531953         1.987078         1.258994
 C         1.603126         1.936442        -0.061844
 O         1.768794         2.369968        -1.404778
 C         1.106621         0.553482         0.440091
 C         0.808709        -0.822366        -0.233942
 H        -1.952696         2.189235         0.604806
 H        -0.860487         3.536480         0.435645
 H        -1.138774         2.333332        -0.992441
 H         1.783387         0.326511         2.717053
 H         2.665859         2.859200         1.918528
 H         3.521030         1.628612         0.834294
 H         2.043103         3.295099        -1.514821
 H         0.324732        -1.428377         0.430837
 H         0.229068        -0.827483        -1.143387
 H         1.779680        -1.328086        -0.517078
