19
Iteration:  2345charge 0 multiplicity 1
 C        -1.126737         2.087839         0.161197
 C         0.211519         1.721089         0.518534
 O         0.259978         1.902522         1.941785
 C         1.570394         1.074902         1.855397
 C         2.512767         2.133247         1.279321
 C         1.631040         1.894133        -0.040033
 O         2.016961         2.523890        -1.288388
 C         1.167568         0.547750         0.403905
 C         0.734641        -0.748922        -0.197457
 H        -1.921640         1.551665         0.813335
 H        -1.182267         3.197466         0.268781
 H        -1.314954         1.909946        -0.882788
 H         1.984351         0.707854         2.917554
 H         2.417002         3.102585         1.758029
 H         3.524534         1.872492         1.005863
 H         2.406349         1.921182        -1.924858
 H        -0.220708        -1.091136         0.175249
 H         0.549044        -0.624510        -1.220281
 H         1.614678        -1.517314        -0.159645
