19
Iteration:  3011charge 0 multiplicity 1
 C        -0.904114         2.229269        -0.119088
 C         0.256391         1.790399         0.586001
 O         0.302189         1.826902         2.008929
 C         1.553004         1.096714         1.935769
 C         2.561627         2.040370         1.163414
 C         1.594640         1.903249         0.035845
 O         1.715129         2.468247        -1.196257
 C         1.068475         0.563736         0.419421
 C         0.811539        -0.754431        -0.153494
 H        -1.851650         1.727271         0.195247
 H        -0.872992         3.317405        -0.013991
 H        -0.824311         2.029115        -1.172017
 H         1.933817         0.471381         2.696127
 H         2.643340         3.112554         1.520433
 H         3.556509         1.597605         0.806310
 H         2.610655         2.250886        -1.509063
 H         0.103212        -1.311974         0.471643
 H         0.184268        -0.587263        -1.114065
 H         1.630335        -1.391030        -0.311129
