19
Iteration:  1628
 C        -1.083655         2.288654        -0.076147
 C         0.172875         1.911254         0.598271
 O         0.370473         1.912712         2.001884
 C         1.540891         1.070550         1.839034
 C         2.656544         1.944905         1.153044
 C         1.620486         1.907133         0.051928
 O         1.768650         2.404951        -1.251110
 C         0.964936         0.593361         0.473099
 C         0.886443        -0.853102        -0.114994
 H        -1.907425         1.433747        -0.179268
 H        -1.442323         3.239892         0.278174
 H        -0.857519         2.466271        -1.167306
 H         1.805244         0.764092         2.809268
 H         2.830572         3.012421         1.524016
 H         3.526481         1.365185         0.756105
 H         2.637657         2.057181        -1.466345
 H        -0.004367        -1.293410         0.337989
 H         0.832834        -0.765366        -1.129798
 H         1.939722        -1.343355         0.117484
