19
Iteration:  3213charge 0 multiplicity 1
 C        -1.129001         2.401517        -0.018580
 C         0.240102         1.836810         0.551943
 O         0.352399         1.877957         2.006550
 C         1.478090         1.100904         1.793197
 C         2.565292         1.995192         1.203823
 C         1.628269         1.929073         0.012320
 O         1.814976         2.424607        -1.206178
 C         1.049361         0.558961         0.381672
 C         0.945684        -0.891454        -0.122007
 H        -1.955994         1.836338         0.464504
 H        -1.250043         3.534846         0.024944
 H        -1.196483         2.141678        -1.144951
 H         1.536555         0.415354         2.717944
 H         2.767926         2.926711         1.764082
 H         3.465626         1.371148         0.949541
 H         2.519782         1.909152        -1.591219
 H         0.450760        -1.451943         0.682727
 H         0.505785        -0.984303        -1.079337
 H         1.838776        -1.335890        -0.242991
