19
Iteration:  4311
 C        -1.030470         2.351901         0.101881
 C         0.223086         1.872120         0.599712
 O         0.331232         1.986267         2.103566
 C         1.480367         0.999620         1.856368
 C         2.631817         1.849670         1.150803
 C         1.634214         1.954076         0.009792
 O         1.859780         2.215667        -1.386089
 C         1.024087         0.597141         0.498541
 C         0.867332        -0.656522        -0.266692
 H        -1.874850         1.843096         0.409817
 H        -1.282157         3.241450         0.656615
 H        -1.030530         2.407476        -0.990556
 H         1.547957         0.241667         2.641637
 H         2.888376         2.795062         1.581303
 H         3.502280         1.179567         1.000765
 H         1.244780         2.911319        -1.638018
 H         0.180476        -1.514728         0.131358
 H         0.605844        -0.432776        -1.377918
 H         1.898125        -1.152643        -0.317980
