19
Iteration:  2287
 C        -1.062798         2.219561        -0.158433
 C         0.169036         1.828041         0.633710
 O         0.331662         1.872342         2.140183
 C         1.481242         1.015995         1.861590
 C         2.631657         1.906764         1.144060
 C         1.583338         2.031713         0.041879
 O         1.745147         2.418914        -1.296361
 C         1.000864         0.625928         0.429601
 C         1.022540        -0.665344        -0.111207
 H        -1.768162         1.461241        -0.216707
 H        -1.443767         3.178513         0.182527
 H        -0.601747         2.402289        -1.108612
 H         1.750044         0.419953         2.633093
 H         2.963445         2.790707         1.669204
 H         3.474499         1.228421         0.858811
 H         1.940385         1.621733        -1.869737
 H         0.775619        -1.392864         0.656049
 H         0.389110        -0.617962        -0.950344
 H         2.067916        -0.926667        -0.461475
