19
Iteration:  2114
 C        -1.062760         2.137323        -0.150275
 C         0.236867         1.847307         0.620288
 O         0.350099         1.832472         2.080408
 C         1.651804         1.076719         1.899447
 C         2.547970         2.105291         1.258115
 C         1.608899         1.984664         0.006024
 O         1.766425         2.342409        -1.328675
 C         1.198492         0.571396         0.426522
 C         0.689533        -0.725862        -0.165739
 H        -1.956820         1.575912         0.076939
 H        -1.224053         3.264443        -0.070953
 H        -0.715691         1.993388        -1.135758
 H         1.811854         0.509681         2.732571
 H         2.509523         3.048967         1.711969
 H         3.582057         1.756615         1.215713
 H         2.663534         2.643139        -1.435540
 H         0.032398        -1.190893         0.549072
 H         0.122954        -0.551852        -1.003762
 H         1.555842        -1.444074        -0.419394
