19
Iteration:  1417charge 0 multiplicity 1
 C        -1.074337         2.320482         0.057917
 C         0.254224         1.818546         0.509160
 O         0.322799         1.916942         2.017025
 C         1.482037         1.090092         1.888716
 C         2.488190         2.077444         1.241721
 C         1.710995         1.871508        -0.048101
 O         1.843194         2.372784        -1.327213
 C         1.091232         0.574981         0.414899
 C         0.833371        -0.828130        -0.122992
 H        -1.769686         1.492024         0.251205
 H        -1.334617         3.329452         0.538629
 H        -1.052249         2.461653        -1.011686
 H         1.907232         0.581696         2.825471
 H         2.645538         3.118818         1.645184
 H         3.392262         1.448376         1.243917
 H         2.465196         1.783614        -1.828892
 H        -0.015513        -1.347235         0.306625
 H         0.570647        -0.734555        -1.214477
 H         1.801522        -1.494526        -0.111567
