19
Iteration:   748
 C        -1.061259         2.304181        -0.100643
 C         0.136100         1.765944         0.652973
 O         0.292726         1.887467         2.062648
 C         1.608872         1.074102         1.885655
 C         2.592573         2.130197         1.269795
 C         1.592239         1.947432        -0.005608
 O         1.766622         2.423914        -1.350917
 C         1.106439         0.516174         0.469448
 C         0.879502        -0.852312        -0.171944
 H        -1.891943         1.649979        -0.082753
 H        -1.354817         3.375535         0.065821
 H        -0.702037         2.350926        -1.194699
 H         1.859406         0.557148         2.852901
 H         2.920421         2.919999         1.850706
 H         3.454476         1.599385         0.926017
 H         2.536140         1.895830        -1.672282
 H         0.121319        -1.537808         0.331446
 H         0.787257        -0.697978        -1.233550
 H         1.753639        -1.350312        -0.242510
