19
Iteration:  3140charge 0 multiplicity 1
 C        -1.055814         2.234096        -0.141364
 C         0.190641         1.866241         0.643024
 O         0.386236         1.891270         2.102468
 C         1.538488         1.075846         1.937000
 C         2.607771         1.984386         1.285387
 C         1.548421         1.959268         0.029839
 O         1.740271         2.272886        -1.332634
 C         1.035297         0.605161         0.517336
 C         0.918534        -0.628476        -0.300807
 H        -1.959363         1.715758         0.256248
 H        -1.285902         3.265007        -0.124439
 H        -0.838491         2.004385        -1.179364
 H         1.852245         0.591072         2.833322
 H         2.918854         2.920443         1.823725
 H         3.513301         1.407464         1.031677
 H         2.268432         1.614459        -1.815268
 H        -0.036735        -1.190107        -0.118824
 H         0.976678        -0.328135        -1.357985
 H         1.856378        -1.412607        -0.321565
