19
Iteration:   150
 C        -1.095143         2.254922        -0.125205
 C         0.179913         1.683233         0.601549
 O         0.389265         1.849834         2.056679
 C         1.655848         1.113654         1.862191
 C         2.514203         2.121619         1.135763
 C         1.711472         1.918439        -0.021059
 O         1.861056         2.495912        -1.281382
 C         1.017214         0.552928         0.508923
 C         0.741231        -0.814723        -0.089350
 H        -2.057557         1.659643         0.184361
 H        -1.124714         3.389631         0.178723
 H        -1.069828         2.084432        -1.216881
 H         1.800374         0.472824         2.885665
 H         2.456399         3.111213         1.664608
 H         3.533075         1.657150         0.974927
 H         2.472045         1.983773        -1.792893
 H        -0.275441        -1.215046         0.222533
 H         0.671114        -0.828374        -1.225813
 H         1.592861        -1.434941         0.228612
