19
Iteration:  3024
 C        -0.966957         2.308805        -0.134693
 C         0.215411         1.701892         0.626955
 O         0.299273         1.785178         2.021619
 C         1.586789         1.018349         1.825199
 C         2.545724         2.098845         1.239377
 C         1.661403         1.956805        -0.028626
 O         1.742576         2.467638        -1.298466
 C         1.155512         0.544791         0.447611
 C         0.739378        -0.763286        -0.064282
 H        -1.972690         1.873052         0.183343
 H        -1.054240         3.453810         0.030477
 H        -0.798860         2.149022        -1.179227
 H         1.768124         0.525039         2.710187
 H         2.571134         3.027405         1.809279
 H         3.524085         1.575328         1.150521
 H         2.684396         2.651481        -1.543985
 H         0.231635        -1.302623         0.743993
 H         0.141143        -0.662504        -1.059560
 H         1.680334        -1.365065        -0.374985
