19
Iteration:  2480
 C        -1.205706         2.401756         0.060135
 C         0.085192         1.762485         0.588438
 O         0.320794         1.682050         2.043951
 C         1.521623         1.046857         1.759761
 C         2.541368         2.100569         1.244708
 C         1.603399         2.054527        -0.025755
 O         1.954872         2.362108        -1.320159
 C         1.077500         0.697195         0.341306
 C         1.007667        -0.807353        -0.084784
 H        -2.039344         1.724979         0.235617
 H        -1.192666         3.425764         0.490909
 H        -1.024057         2.508954        -1.100458
 H         1.771648         0.168153         2.470422
 H         2.618327         3.007532         1.841582
 H         3.523070         1.747272         1.094048
 H         2.116971         1.617689        -1.927331
 H         0.552268        -1.284215         0.811346
 H         0.373119        -1.204071        -0.986362
 H         2.013164        -1.120321        -0.139423
