19
Iteration:  4041
 C        -0.922868         2.353067        -0.077588
 C         0.138974         1.740022         0.656040
 O         0.422960         1.894284         2.077659
 C         1.571067         0.966866         1.801544
 C         2.607636         1.914053         1.207839
 C         1.537654         1.978274        -0.038003
 O         1.732657         2.526671        -1.278175
 C         1.016760         0.580708         0.443621
 C         0.796163        -0.816619        -0.159450
 H        -1.966480         2.064550         0.260916
 H        -0.850042         3.399328         0.130112
 H        -0.877927         2.394644        -1.196732
 H         1.754093         0.384259         2.689109
 H         2.954329         2.798025         1.809872
 H         3.529303         1.334324         0.899571
 H         2.627933         2.293181        -1.628200
 H         0.139446        -1.430265         0.557872
 H         0.129069        -0.793176        -1.058604
 H         1.815849        -1.403493        -0.281573
