19
Iteration:  4648
 C        -1.102433         2.347088        -0.009008
 C         0.242605         1.863509         0.524979
 O         0.389982         1.839880         2.057327
 C         1.579392         0.996799         1.861228
 C         2.609073         1.988595         1.136340
 C         1.628442         1.897251        -0.000240
 O         1.855943         2.391602        -1.227048
 C         1.092964         0.565566         0.392873
 C         0.666601        -0.752288        -0.192846
 H        -1.844749         1.731011         0.436412
 H        -1.204938         3.331991         0.321910
 H        -1.040812         2.078620        -1.056708
 H         2.036132         0.362888         2.693848
 H         2.862186         2.890284         1.664013
 H         3.589194         1.512330         0.991088
 H         1.860702         3.328785        -1.009191
 H         0.300497        -1.179887         0.702136
 H         0.035926        -0.831499        -1.084217
 H         1.570419        -1.441390        -0.527752
