19
Iteration:  1044
 C        -1.100409         2.187188        -0.144821
 C         0.174969         1.799721         0.580679
 O         0.399254         2.001915         2.007069
 C         1.534941         1.048417         1.882225
 C         2.601879         1.981617         1.211817
 C         1.628517         1.857965         0.032607
 O         1.758626         2.497543        -1.206466
 C         1.047974         0.554796         0.531378
 C         0.884888        -0.768212        -0.173524
 H        -1.905681         1.641129         0.262009
 H        -1.238347         3.270264        -0.040600
 H        -1.059575         1.972206        -1.217273
 H         1.713908         0.556368         2.848351
 H         2.863804         2.984231         1.522910
 H         3.443291         1.278843         0.938083
 H         2.364243         1.977356        -1.815201
 H         0.101737        -1.487564         0.121190
 H         0.647599        -0.440163        -1.222837
 H         1.962483        -1.303447        -0.261083
