19
Iteration:  3557charge 0 multiplicity 1
 C        -1.142481         2.101105         0.092575
 C         0.250900         1.834006         0.573200
 O         0.366266         1.993336         2.049484
 C         1.474243         1.129836         1.922947
 C         2.548723         2.000332         1.301664
 C         1.714503         1.856982         0.006800
 O         1.859543         2.375317        -1.356943
 C         1.133028         0.560828         0.431395
 C         0.778601        -0.663771        -0.343886
 H        -1.898461         1.522838         0.573219
 H        -1.482241         3.049093         0.216499
 H        -1.023664         1.780961        -0.896251
 H         1.739634         0.500216         2.854868
 H         2.699320         3.035810         1.623666
 H         3.517931         1.567386         1.306018
 H         2.582127         2.167929        -1.968597
 H        -0.203513        -1.152295         0.089619
 H         0.535620        -0.407467        -1.418072
 H         1.530065        -1.419606        -0.296714
