19
Iteration:  1142
 C        -1.134877         2.249426         0.036583
 C         0.249385         1.831933         0.544558
 O         0.304302         1.854275         1.965975
 C         1.525340         1.086094         1.853750
 C         2.462918         2.084379         1.192456
 C         1.615988         1.857691        -0.046307
 O         1.947061         2.393738        -1.258426
 C         1.146231         0.572914         0.451439
 C         0.834040        -0.733211        -0.121367
 H        -1.798712         1.688166         0.663297
 H        -1.241915         3.293210         0.416392
 H        -1.546012         2.439605        -1.045733
 H         1.699058         0.375305         2.731615
 H         2.482637         3.053556         1.671339
 H         3.524166         1.672132         1.031795
 H         2.538113         1.815299        -1.838636
 H         0.361378        -1.361501         0.613337
 H         0.467453        -0.624485        -1.059347
 H         1.802008        -1.339463        -0.461217
