19
Iteration:   740charge 0 multiplicity 1
 C        -1.080944         2.319288        -0.100988
 C         0.124920         1.791037         0.604379
 O         0.330524         1.831599         2.057462
 C         1.632783         1.035026         1.863289
 C         2.565157         2.144804         1.278173
 C         1.568112         1.948299        -0.048150
 O         1.806545         2.400836        -1.330888
 C         1.081003         0.543495         0.481827
 C         0.911849        -0.820335        -0.122329
 H        -2.004027         1.740446        -0.006495
 H        -1.289097         3.353189         0.206034
 H        -0.914066         2.363095        -1.196801
 H         1.761088         0.408457         2.630744
 H         2.745103         3.062629         1.828066
 H         3.487880         1.635411         1.004145
 H         2.603336         2.056319        -1.816847
 H         0.047875        -1.398302         0.314394
 H         0.586022        -0.624643        -1.220450
 H         1.840761        -1.485106         0.140782
