19
Iteration:   953charge 0 multiplicity 1
 C        -1.117980         2.249239        -0.071559
 C         0.177641         1.840939         0.669249
 O         0.314611         2.013670         2.074203
 C         1.511883         1.031044         1.949044
 C         2.527809         1.986564         1.192055
 C         1.637530         1.896179        -0.021667
 O         1.801715         2.426920        -1.318969
 C         1.123157         0.518490         0.443610
 C         0.948810        -0.795520        -0.231123
 H        -1.922606         1.587862         0.136884
 H        -1.272919         3.261736         0.254331
 H        -0.918860         2.324158        -1.128451
 H         1.926963         0.566116         2.869704
 H         2.592367         3.001828         1.678551
 H         3.474852         1.463015         1.147563
 H         2.466842         1.877131        -1.760038
 H         0.253033        -1.485774         0.297811
 H         0.552733        -0.571730        -1.168050
 H         1.970589        -1.420506        -0.582799
