19
Iteration:  4181
 C        -1.136362         2.288580         0.048671
 C         0.157559         1.822529         0.647262
 O         0.423942         1.979389         2.130307
 C         1.544916         1.027063         1.908827
 C         2.691156         1.923096         1.132665
 C         1.653750         1.847293         0.021945
 O         1.949947         2.390008        -1.302366
 C         1.009045         0.587919         0.393918
 C         0.683981        -0.752689        -0.295780
 H        -2.004391         1.673711         0.251990
 H        -1.283373         3.422756        -0.146123
 H        -0.837585         2.021786        -1.055285
 H         1.691103         0.239698         2.653773
 H         2.887327         2.860336         1.664860
 H         3.635785         1.342798         0.973671
 H         1.320235         3.066256        -1.593173
 H        -0.031466        -1.280322         0.322013
 H         0.465750        -0.567458        -1.348096
 H         1.631690        -1.246522        -0.273058
