19
Iteration:   268charge 0 multiplicity 1
 C        -1.163545         2.269489        -0.038018
 C         0.128452         1.848164         0.574253
 O         0.369131         1.961216         1.986807
 C         1.460787         1.164971         1.880796
 C         2.640287         1.884407         1.226481
 C         1.611209         1.871008        -0.056923
 O         1.779223         2.382190        -1.266297
 C         1.045804         0.604336         0.431210
 C         1.027796        -0.728084        -0.115747
 H        -1.941651         1.575921         0.421683
 H        -1.196589         3.369865         0.260499
 H        -1.236428         2.205736        -1.121759
 H         1.621004         0.402209         2.705884
 H         2.990825         2.748772         1.755100
 H         3.383078         1.127869         1.046856
 H         2.566892         2.013438        -1.685305
 H         0.390350        -1.518582         0.577378
 H         0.652206        -0.827330        -1.179399
 H         2.076760        -1.183981        -0.155868
