19
Iteration:  4334charge 0 multiplicity 1
 C        -1.139928         2.398492         0.049966
 C         0.115750         1.899379         0.597424
 O         0.476779         1.987554         2.070354
 C         1.578677         1.062691         1.928853
 C         2.639987         1.843660         1.164849
 C         1.612174         1.864050         0.040609
 O         1.880285         2.210360        -1.285148
 C         0.934411         0.584077         0.473636
 C         0.877146        -0.686370        -0.376339
 H        -1.938429         1.761082         0.235659
 H        -1.679135         3.282523         0.353308
 H        -0.911453         2.208591        -1.001402
 H         1.712071         0.565309         2.946192
 H         2.982449         2.761458         1.611383
 H         3.474140         1.221422         0.827987
 H         1.171456         2.898959        -1.429396
 H         0.106189        -1.483707         0.020093
 H         0.726461        -0.460584        -1.485354
 H         1.929528        -1.147608        -0.205618
