19
Iteration:  2121
 C        -1.062481         2.114904        -0.158163
 C         0.236756         1.763766         0.637563
 O         0.370490         1.898570         2.057487
 C         1.606566         1.091783         1.866810
 C         2.568201         2.051131         1.212580
 C         1.620382         2.008348        -0.009130
 O         1.766243         2.378861        -1.264787
 C         1.173246         0.540229         0.505759
 C         0.719882        -0.716634        -0.171588
 H        -1.958771         1.582999         0.120178
 H        -1.209595         3.154077        -0.074539
 H        -0.903044         1.945770        -1.362183
 H         1.871994         0.556156         2.883487
 H         2.525996         3.080167         1.692691
 H         3.581779         1.743589         0.944888
 H         2.698543         2.648039        -1.352411
 H        -0.073078        -1.222877         0.440755
 H         0.179701        -0.352789        -1.130313
 H         1.445623        -1.449887        -0.466265
