19
Iteration:  3273charge 0 multiplicity 1
 C        -0.947670         2.263349        -0.152710
 C         0.195538         1.793872         0.583826
 O         0.374802         1.981384         1.977136
 C         1.564578         1.059297         1.838508
 C         2.604996         1.961921         1.161020
 C         1.594039         1.892453         0.018853
 O         1.725369         2.520468        -1.133869
 C         1.047053         0.482988         0.405648
 C         0.802678        -0.826752        -0.079341
 H        -1.871209         1.609524        -0.102842
 H        -1.305560         3.200855         0.252673
 H        -0.687530         2.364921        -1.177777
 H         1.653652         0.486569         2.734299
 H         2.679279         2.864082         1.772406
 H         3.637852         1.654812         1.020171
 H         2.471107         2.317333        -1.717719
 H         0.184285        -1.387446         0.587279
 H         0.162718        -0.936604        -1.011057
 H         1.830887        -1.353339        -0.176556
