19
Iteration:  4268
 C        -1.000832         2.449175         0.047292
 C         0.196176         1.717060         0.648452
 O         0.372165         1.887781         2.094859
 C         1.502644         0.981713         1.801604
 C         2.586291         2.067823         1.103712
 C         1.645337         1.836749        -0.013830
 O         1.873868         2.330950        -1.290698
 C         0.990395         0.550534         0.388068
 C         0.785405        -0.738523        -0.156746
 H        -1.921955         2.023830         0.344770
 H        -1.027262         3.504601         0.409387
 H        -0.921575         2.265129        -1.024388
 H         1.850793         0.218872         2.503703
 H         2.603230         2.958925         1.677235
 H         3.582463         1.796621         0.750470
 H         2.247035         3.201018        -1.291854
 H         0.082898        -1.362571         0.491670
 H         0.220547        -0.673510        -1.136106
 H         1.580487        -1.447052        -0.432644
