19
Iteration:  3088
 C        -1.172226         2.273650        -0.075203
 C         0.168513         1.736464         0.571754
 O         0.344052         1.914737         2.005021
 C         1.513306         1.092591         1.888750
 C         2.583150         1.954921         1.156897
 C         1.613028         1.962612        -0.016211
 O         1.901124         2.547736        -1.268638
 C         1.106547         0.519058         0.487890
 C         0.841435        -0.849510        -0.119667
 H        -2.030886         1.644729         0.209023
 H        -1.440779         3.190526         0.428836
 H        -1.124583         2.434317        -1.094651
 H         1.826432         0.649742         2.748922
 H         3.036168         2.773055         1.736357
 H         3.512864         1.412484         0.890213
 H         2.740310         2.264216        -1.631326
 H         0.287804        -1.465081         0.539070
 H         0.385411        -0.968849        -1.136037
 H         1.733130        -1.236022        -0.223870
