19
Iteration:  4070charge 0 multiplicity 1
 C        -1.017382         2.393319        -0.055231
 C         0.188129         1.927841         0.589751
 O         0.396282         1.850969         2.093562
 C         1.484196         1.027297         1.888966
 C         2.678078         1.927032         1.133863
 C         1.679574         1.832561        -0.017178
 O         1.708647         2.417015        -1.267896
 C         0.947340         0.551989         0.459017
 C         0.854401        -0.805042        -0.230925
 H        -1.731435         1.824840         0.459290
 H        -1.104469         3.478775         0.490665
 H        -0.927202         2.445782        -1.195729
 H         1.733863         0.497263         2.780483
 H         2.940613         2.919926         1.535343
 H         3.548844         1.226915         1.049525
 H         2.476912         3.021897        -1.410354
 H         0.205763        -1.492572         0.245504
 H         0.302775        -0.851782        -1.130660
 H         1.792877        -1.253396        -0.273935
