19
Iteration:  1154charge 0 multiplicity 1
 C        -1.215876         2.233033         0.079527
 C         0.137150         1.774028         0.482049
 O         0.331720         1.934643         1.974167
 C         1.530768         1.080183         1.893642
 C         2.537933         2.015948         1.252109
 C         1.713332         1.903601        -0.038083
 O         1.921237         2.380581        -1.303387
 C         1.083116         0.585403         0.455563
 C         0.894003        -0.699780        -0.188304
 H        -2.085798         1.572804         0.330435
 H        -1.327173         3.240783         0.518440
 H        -1.131802         2.195689        -1.050931
 H         1.896178         0.552495         2.839465
 H         2.671317         2.991667         1.715864
 H         3.527443         1.424572         1.221050
 H         2.600343         1.864203        -1.756125
 H         0.267723        -1.294744         0.488884
 H         0.175571        -0.634507        -0.926946
 H         1.890693        -1.291029        -0.376204
