19
Iteration:  3215
 C        -1.118007         2.399218        -0.018421
 C         0.234905         1.821271         0.546180
 O         0.349710         1.877914         2.002716
 C         1.485328         1.098365         1.810548
 C         2.576931         1.981009         1.198923
 C         1.617994         1.937993         0.001496
 O         1.817693         2.432603        -1.195019
 C         1.041446         0.570315         0.369863
 C         0.939562        -0.871660        -0.106854
 H        -2.001548         1.786577         0.427737
 H        -1.220421         3.512055         0.019783
 H        -1.166667         2.129828        -1.118936
 H         1.534477         0.391583         2.625886
 H         2.763635         2.915477         1.699228
 H         3.368338         1.317019         0.957843
 H         2.517056         1.915362        -1.634710
 H         0.484532        -1.460809         0.691692
 H         0.481353        -1.009321        -1.024288
 H         1.917184        -1.326575        -0.207748
