19
Iteration:   600charge 0 multiplicity 1
 C        -0.974662         2.231179        -0.045177
 C         0.233552         1.813475         0.610949
 O         0.296129         1.856646         2.027654
 C         1.567307         1.151849         1.938279
 C         2.552185         2.167426         1.239900
 C         1.638781         1.883659         0.009025
 O         1.833693         2.377925        -1.295607
 C         1.040805         0.518390         0.455032
 C         0.787618        -0.809977        -0.284773
 H        -1.794318         1.565224         0.317914
 H        -1.325398         3.247435         0.180540
 H        -0.935300         2.145337        -1.173990
 H         1.955810         0.748552         3.023814
 H         2.476480         3.295852         1.551460
 H         3.610471         1.795713         1.279773
 H         2.480053         1.693852        -1.650189
 H         0.269139        -1.519457         0.358777
 H         0.111690        -0.432805        -1.055638
 H         1.622396        -1.395197        -0.642927
