19
Iteration:   250charge 0 multiplicity 1
 C        -1.148383         2.217236        -0.056151
 C         0.168920         1.826925         0.576107
 O         0.330838         2.120286         1.985871
 C         1.529002         1.012511         1.914281
 C         2.609427         1.845030         1.127430
 C         1.612542         1.950592         0.030355
 O         1.827935         2.456628        -1.287168
 C         0.937702         0.492254         0.571571
 C         1.027967        -0.767566        -0.151861
 H        -1.976505         1.546893         0.290664
 H        -1.437537         3.277727         0.076838
 H        -1.138080         2.175150        -1.143250
 H         1.732594         0.476968         2.855477
 H         2.977114         2.788568         1.573514
 H         3.451412         1.197384         0.793492
 H         2.566294         2.064365        -1.765579
 H         0.636638        -1.621862         0.426189
 H         0.500450        -0.628389        -1.114275
 H         1.990895        -1.050036        -0.328815
