19
Iteration:   197
 C        -1.034210         2.223477        -0.110274
 C         0.238192         1.790116         0.559501
 O         0.312566         1.832297         1.999301
 C         1.565720         1.086278         1.862466
 C         2.621764         2.111244         1.294207
 C         1.661875         1.993202         0.043290
 O         1.726029         2.338988        -1.349185
 C         1.120190         0.558581         0.486724
 C         0.769665        -0.716512        -0.091545
 H        -1.868339         1.720164         0.280550
 H        -1.067327         3.276246         0.002200
 H        -1.015999         2.016656        -1.174595
 H         1.878536         0.512354         2.744372
 H         2.678810         3.139278         1.811883
 H         3.594225         1.556417         1.116920
 H         2.538458         1.972096        -1.742940
 H         0.182084        -1.279931         0.493364
 H         0.167739        -0.452419        -0.975147
 H         1.667806        -1.388853        -0.510022
