19
Iteration:  3795
 C        -1.074164         2.159145        -0.015037
 C         0.198953         1.880762         0.638545
 O         0.362061         1.972107         2.052774
 C         1.506604         1.006497         1.816381
 C         2.570576         1.955927         1.076378
 C         1.567516         1.909210         0.033274
 O         1.874006         2.393021        -1.251688
 C         1.010279         0.600340         0.464111
 C         0.872058        -0.728452        -0.185053
 H        -1.932368         1.617874         0.417627
 H        -1.331854         3.256692         0.118939
 H        -1.105121         1.916924        -1.019299
 H         1.745264         0.243014         2.599151
 H         2.847960         2.936797         1.607583
 H         3.419434         1.422202         0.636140
 H         2.666526         2.939872        -1.032061
 H         0.257093        -1.387859         0.416665
 H         0.615182        -0.603457        -1.244788
 H         1.911363        -1.213572        -0.278626
