19
Iteration:   709
 C        -1.064252         2.313695         0.073165
 C         0.248646         1.825737         0.573604
 O         0.239228         1.826758         1.973298
 C         1.514454         1.072495         1.805395
 C         2.510212         2.123889         1.234909
 C         1.639360         1.928737        -0.060939
 O         1.868483         2.453833        -1.322513
 C         1.077674         0.580559         0.375854
 C         0.905031        -0.899145        -0.053521
 H        -1.858061         1.730839         0.621194
 H        -1.236095         3.320564         0.425167
 H        -1.049868         2.127660        -0.986336
 H         1.688764         0.382514         2.652876
 H         2.621572         3.179842         1.706033
 H         3.504646         1.616804         1.067861
 H         2.629513         2.124704        -1.799978
 H         0.004287        -1.247093         0.376696
 H         0.807254        -1.165207        -1.163255
 H         1.882308        -1.537089         0.278504
