19
Iteration:  1550
 C        -1.051920         2.259564        -0.059316
 C         0.171952         1.812222         0.658736
 O         0.320519         1.836563         2.073302
 C         1.615057         1.014816         1.941296
 C         2.475235         2.107996         1.231925
 C         1.647651         1.972574        -0.024345
 O         1.914126         2.293577        -1.410801
 C         1.130864         0.650244         0.487317
 C         0.744559        -0.667777        -0.217890
 H        -2.053805         1.833545         0.407779
 H        -1.249959         3.366591        -0.116731
 H        -0.906118         1.848447        -0.980778
 H         1.723195         0.319660         2.763525
 H         2.647676         3.087269         1.804971
 H         3.467626         1.677936         1.061884
 H         2.478370         1.530967        -1.725907
 H         0.128846        -1.316052         0.408073
 H         0.198083        -0.560606        -1.099590
 H         1.710067        -1.292985        -0.355705
