19
Iteration:  4883
 C        -1.083877         2.174472        -0.041538
 C         0.194645         1.811233         0.659634
 O         0.437085         1.947213         2.109975
 C         1.591658         0.926021         1.882306
 C         2.678152         1.823922         1.139051
 C         1.624309         2.007447         0.007476
 O         1.866668         2.473632        -1.350384
 C         0.991033         0.574156         0.550693
 C         0.729715        -0.647833        -0.220396
 H        -1.851097         1.346057         0.080342
 H        -1.511268         3.120717         0.285869
 H        -1.022186         2.187881        -1.099808
 H         1.828020         0.453292         2.836124
 H         3.065675         2.824998         1.375066
 H         3.531801         1.244283         0.775340
 H         1.347732         3.285182        -1.577206
 H        -0.142754        -1.326109         0.267241
 H         0.307805        -0.306753        -1.244927
 H         1.585755        -1.226928        -0.589085
