19
Iteration:  3459charge 0 multiplicity 1
 C        -0.929398         2.503437        -0.064001
 C         0.243196         1.641985         0.512453
 O         0.250949         1.807967         2.049279
 C         1.542028         1.068350         1.878113
 C         2.546859         2.154241         1.213193
 C         1.665273         1.959767         0.008431
 O         1.643171         2.463950        -1.320094
 C         1.221466         0.438556         0.466186
 C         0.847294        -0.892456        -0.128567
 H        -2.064881         2.125192         0.139842
 H        -0.856359         3.509481         0.437764
 H        -0.838758         2.474365        -1.192162
 H         1.943124         0.394570         2.744773
 H         2.707604         3.028510         1.942506
 H         3.509110         1.610661         0.983262
 H         2.342975         2.052988        -1.867764
 H         0.221693        -1.295414         0.694471
 H         0.111885        -0.875760        -0.929181
 H         1.666867        -1.494363        -0.272576
