19
Iteration:  4701charge 0 multiplicity 1
 C        -1.125515         2.279779         0.069015
 C         0.170356         1.890112         0.618484
 O         0.419786         1.830701         2.083771
 C         1.579016         0.990252         1.878244
 C         2.599040         2.067986         1.149524
 C         1.666310         1.916513        -0.006916
 O         1.904220         2.248477        -1.263620
 C         1.086818         0.618668         0.370910
 C         0.673546        -0.698226        -0.266035
 H        -1.871973         1.517739         0.355185
 H        -1.275051         3.388540         0.184062
 H        -1.017982         2.135210        -1.023968
 H         1.982819         0.377362         2.723871
 H         2.660865         2.980750         1.748063
 H         3.591407         1.575030         0.934271
 H         1.899328         3.211763        -1.319639
 H        -0.184723        -1.122762         0.171438
 H         0.399609        -0.272621        -1.256164
 H         1.540091        -1.479765        -0.415250
