19
Iteration:  4282charge 0 multiplicity 1
 C        -1.065566         2.427019         0.051838
 C         0.125197         1.847832         0.619380
 O         0.395472         1.853953         2.065928
 C         1.617000         1.074375         1.806459
 C         2.579005         1.954880         1.180750
 C         1.632769         1.887570         0.006184
 O         1.859384         2.244022        -1.305537
 C         1.072819         0.585004         0.388789
 C         0.760944        -0.788025        -0.242924
 H        -2.090010         1.964900         0.415651
 H        -1.096858         3.559699         0.405309
 H        -1.052448         2.565505        -1.026651
 H         1.822004         0.429670         2.726718
 H         2.662927         3.014203         1.552402
 H         3.506541         1.389101         1.234391
 H         1.928081         3.237140        -1.223399
 H         0.189317        -1.333542         0.445574
 H         0.303533        -0.705304        -1.168405
 H         1.783905        -1.197774        -0.278352
