19
Iteration:  3683
 C        -1.042119         2.339702         0.043958
 C         0.205927         1.838564         0.636132
 O         0.264017         1.869499         2.046916
 C         1.518764         1.061099         1.907911
 C         2.529259         1.936794         1.064570
 C         1.573653         1.950829        -0.055863
 O         1.869551         2.512799        -1.280499
 C         0.979844         0.532767         0.377223
 C         0.950647        -0.834505        -0.067581
 H        -1.696655         1.440679         0.076746
 H        -1.279037         3.313443         0.334453
 H        -0.743580         2.519828        -1.048613
 H         1.836155         0.299606         2.592176
 H         2.785547         2.928403         1.499363
 H         3.438732         1.383974         0.715246
 H         2.663667         2.138674        -1.660320
 H         0.364268        -1.380150         0.589918
 H         0.643835        -0.902490        -1.095743
 H         1.943068        -1.384366        -0.158071
