19
Iteration:   248
 C        -1.126952         2.215805        -0.060386
 C         0.159322         1.840500         0.596418
 O         0.334455         2.118159         1.979243
 C         1.524707         1.027199         1.923704
 C         2.620643         1.859295         1.124607
 C         1.595647         1.961404         0.008589
 O         1.836218         2.455557        -1.279610
 C         0.927980         0.471569         0.586098
 C         1.021847        -0.764110        -0.164177
 H        -1.929843         1.436721         0.296595
 H        -1.420199         3.327623         0.059119
 H        -1.138054         2.148290        -1.147324
 H         1.760210         0.397982         2.859084
 H         2.948317         2.731606         1.597479
 H         3.401559         1.215660         0.770927
 H         2.549279         2.084007        -1.778795
 H         0.615650        -1.756380         0.476341
 H         0.480385        -0.658163        -1.167637
 H         2.013708        -1.063052        -0.353497
