19
Iteration:  2635
 C        -1.019216         2.276753         0.097445
 C         0.212274         1.681512         0.575589
 O         0.243360         1.833988         1.998248
 C         1.474675         1.045579         1.828239
 C         2.473942         2.182003         1.212159
 C         1.641203         1.975013        -0.040542
 O         1.882266         2.482328        -1.337916
 C         1.142830         0.535936         0.333940
 C         0.862238        -0.880436        -0.101088
 H        -1.901072         1.826350         0.571565
 H        -0.864605         3.355982         0.565950
 H        -1.130877         2.406992        -0.953325
 H         1.707352         0.594762         2.720352
 H         2.611277         3.114766         1.621206
 H         3.405406         1.692898         1.084007
 H         2.833655         2.237851        -1.422228
 H         0.459035        -1.507829         0.725938
 H         0.328655        -0.904841        -1.174415
 H         1.775644        -1.306063        -0.202713
