19
Iteration:  4742
 C        -1.120027         2.306533         0.087300
 C         0.270118         1.922209         0.709113
 O         0.402262         2.028063         2.085172
 C         1.490387         1.122231         1.865915
 C         2.611728         1.817712         1.170613
 C         1.626207         1.916796         0.065074
 O         1.802092         2.289752        -1.285678
 C         1.030229         0.515061         0.447826
 C         0.898361        -0.742711        -0.443632
 H        -1.987526         1.523205         0.234965
 H        -1.446342         3.413430         0.359516
 H        -0.857832         2.120892        -0.954894
 H         1.719932         0.546526         2.736774
 H         3.263105         2.696618         1.484848
 H         3.363689         1.037627         0.870219
 H         1.140325         3.023651        -1.422137
 H         0.047924        -1.362389        -0.017120
 H         0.768791        -0.637793        -1.530945
 H         1.735638        -1.368840        -0.391779
