19
Iteration:  4480charge 0 multiplicity 1
 C        -1.071132         2.254494        -0.016396
 C         0.238781         1.956415         0.695036
 O         0.427527         2.004307         2.106751
 C         1.520608         1.062864         1.872120
 C         2.635618         1.829520         1.186411
 C         1.658146         1.945141         0.046374
 O         1.871716         2.357072        -1.296816
 C         0.975770         0.566742         0.340139
 C         0.757292        -0.821580        -0.281978
 H        -1.951768         1.648899         0.321842
 H        -1.425321         3.216096         0.374241
 H        -1.060904         2.212682        -1.077300
 H         1.834791         0.459613         2.684826
 H         3.089277         2.709862         1.630042
 H         3.399543         1.135025         0.907751
 H         1.205550         3.016697        -1.462067
 H         0.169757        -1.482932         0.426884
 H         0.235808        -0.575104        -1.230607
 H         1.840100        -1.274002        -0.650917
