19
Iteration:  2312charge 0 multiplicity 1
 C        -1.199573         2.109714        -0.037473
 C         0.172681         1.851280         0.599365
 O         0.351513         1.962879         2.055965
 C         1.559641         1.072986         1.845276
 C         2.594066         1.948265         1.183526
 C         1.567078         1.974018        -0.016297
 O         1.956809         2.512306        -1.224138
 C         0.991819         0.588192         0.394571
 C         0.912831        -0.795922        -0.171408
 H        -1.886957         1.238163         0.240622
 H        -1.527607         3.118859         0.345114
 H        -1.043120         2.203965        -1.088997
 H         1.831682         0.569093         2.872046
 H         2.952643         2.790026         1.766340
 H         3.424738         1.343388         0.840146
 H         1.978102         1.895700        -1.980457
 H         0.392745        -1.473679         0.502182
 H         0.446131        -0.719402        -1.113781
 H         2.013052        -1.168788        -0.279996
