19
Iteration:   256charge 0 multiplicity 1
 C        -1.188817         2.220272        -0.058127
 C         0.192529         1.800382         0.535785
 O         0.335817         2.095941         2.002478
 C         1.526404         1.016449         1.873481
 C         2.598532         1.823374         1.155365
 C         1.634645         1.907777         0.042631
 O         1.803025         2.451400        -1.293649
 C         0.970345         0.576309         0.533705
 C         1.042759        -0.753795        -0.129123
 H        -2.128811         1.747209         0.336146
 H        -1.425117         3.282626         0.248504
 H        -1.105278         2.165482        -1.157207
 H         1.646926         0.626836         2.913297
 H         3.013158         2.783081         1.509227
 H         3.470161         1.204030         0.921697
 H         2.576741         1.992340        -1.638227
 H         0.433153        -1.589962         0.495645
 H         0.503763        -0.628320        -1.097305
 H         2.167614        -1.051427        -0.336949
