19
Iteration:   867
 C        -1.039993         2.247913         0.038019
 C         0.211436         1.846056         0.574686
 O         0.292880         1.880080         1.961467
 C         1.535796         1.055064         1.820192
 C         2.507330         2.122840         1.201525
 C         1.552155         1.901343         0.017352
 O         1.857696         2.465385        -1.269223
 C         1.143182         0.522202         0.413720
 C         0.898604        -0.863921        -0.154748
 H        -1.778236         1.898093         0.653393
 H        -1.103434         3.355543         0.094893
 H        -1.247190         2.024159        -1.035630
 H         1.756412         0.491019         2.760568
 H         2.598074         3.102047         1.734094
 H         3.531706         1.749273         1.007099
 H         2.634368         1.839813        -1.509761
 H         0.011986        -1.078489         0.504299
 H         0.586997        -0.807924        -1.143137
 H         1.592705        -1.705740        -0.095697
