19
Iteration:   521charge 0 multiplicity 1
 C        -1.058405         2.261831         0.003797
 C         0.186577         1.777469         0.564129
 O         0.332066         2.020834         1.977836
 C         1.492050         1.027238         1.871857
 C         2.574199         1.899503         1.174145
 C         1.632844         1.874215        -0.055066
 O         1.740364         2.476330        -1.261912
 C         0.994846         0.557311         0.493302
 C         0.985662        -0.775217        -0.092560
 H        -1.947762         1.686411         0.031449
 H        -1.252629         3.346508         0.133778
 H        -0.812960         2.272551        -1.096063
 H         1.647270         0.441259         2.707272
 H         2.733532         2.884642         1.786199
 H         3.544254         1.312539         1.084216
 H         2.552932         2.132345        -1.710068
 H         0.199938        -1.385219         0.086744
 H         1.124562        -0.615215        -1.207928
 H         2.043459        -1.123772         0.196461
