19
Iteration:  4085charge 0 multiplicity 1
 C        -1.047947         2.418568         0.069779
 C         0.201357         1.745861         0.643263
 O         0.352214         1.934644         2.070054
 C         1.567981         1.052172         1.842528
 C         2.641715         1.890938         1.200430
 C         1.621200         1.928857         0.026596
 O         1.782537         2.322243        -1.349424
 C         0.990335         0.570994         0.404117
 C         0.820177        -0.769977        -0.250832
 H        -2.046453         1.896950         0.130400
 H        -1.230366         3.451405         0.298062
 H        -1.001722         2.520658        -1.036901
 H         1.780198         0.346208         2.660203
 H         2.956390         2.828339         1.755963
 H         3.549363         1.300969         0.897385
 H         2.416777         3.076396        -1.255010
 H         0.157740        -1.448120         0.359382
 H         0.502768        -0.574346        -1.313305
 H         1.913026        -1.195094        -0.276115
