19
Iteration:  4445
 C        -1.054798         2.296172        -0.076049
 C         0.228876         1.815380         0.623268
 O         0.389502         1.931196         2.074822
 C         1.590124         1.014895         1.800047
 C         2.624120         1.908429         1.112210
 C         1.667576         1.897629        -0.038409
 O         1.886799         2.471183        -1.252756
 C         1.007836         0.578398         0.506473
 C         0.683479        -0.810809        -0.137162
 H        -1.788113         1.715292         0.466929
 H        -0.892013         3.353411         0.289630
 H        -1.102640         2.408426        -1.122532
 H         1.723109         0.335656         2.732401
 H         2.850881         2.865898         1.586719
 H         3.459890         1.260388         1.038290
 H         1.273240         3.189691        -1.340692
 H         0.052559        -1.743172         0.314333
 H         0.024205        -0.535434        -1.026133
 H         1.716994        -1.319962        -0.595222
