19
Iteration:  1165
 C        -1.183879         2.198547         0.021732
 C         0.178155         1.753188         0.656192
 O         0.323230         1.972548         1.993298
 C         1.483973         1.134513         1.872663
 C         2.650031         2.002032         1.263874
 C         1.683118         1.973673         0.028304
 O         1.910585         2.375741        -1.367647
 C         1.016155         0.584025         0.443405
 C         0.860214        -0.775620        -0.216219
 H        -1.961622         1.427423         0.289065
 H        -1.568025         3.180788         0.371104
 H        -1.201549         2.387828        -1.112393
 H         1.521981         0.504377         2.826265
 H         2.886799         2.944969         1.761315
 H         3.609467         1.455512         0.952325
 H         2.653884         1.834668        -1.606229
 H         0.431214        -1.545596         0.425384
 H         0.429692        -0.624975        -1.169292
 H         1.899043        -1.205072        -0.607434
