19
Iteration:   994
 C        -1.286771         2.308075         0.040448
 C         0.089807         1.769705         0.572959
 O         0.299009         1.839275         2.025604
 C         1.596513         1.086514         1.824950
 C         2.567817         2.074990         1.240950
 C         1.732474         1.911208        -0.007881
 O         1.948947         2.270353        -1.325589
 C         1.124866         0.631193         0.485572
 C         0.939052        -0.677644        -0.234865
 H        -2.254048         1.630355         0.389021
 H        -1.394894         3.393654         0.358522
 H        -1.395016         2.238438        -1.035870
 H         1.694778         0.475608         2.784224
 H         2.358543         3.085745         1.687507
 H         3.586190         1.715278         1.167982
 H         2.793526         1.923561        -1.637545
 H         0.328826        -1.273196         0.450809
 H         0.094703        -0.584063        -0.977040
 H         1.758285        -1.241711        -0.476517
