19
Iteration:  3073
 C        -1.067964         2.261338         0.012525
 C         0.138676         1.735675         0.562218
 O         0.269539         1.874455         1.995023
 C         1.592022         1.051542         1.798134
 C         2.572359         2.026277         1.150804
 C         1.598376         1.903810        -0.032504
 O         1.923471         2.541794        -1.273517
 C         1.033721         0.592319         0.396321
 C         0.857786        -0.844195        -0.009911
 H        -1.973003         1.681631         0.164806
 H        -1.175303         3.252942         0.439537
 H        -0.836451         2.441924        -1.091650
 H         1.680240         0.230118         2.640869
 H         2.595959         3.074551         1.501578
 H         3.462637         1.445309         0.904958
 H         2.891719         2.463249        -1.194595
 H         0.288772        -1.337037         0.833222
 H         0.250199        -0.682702        -0.861544
 H         1.720445        -1.577766        -0.436393
