19
Iteration:  1071charge 0 multiplicity 1
 C        -0.904470         2.220373        -0.156520
 C         0.213472         1.787558         0.594140
 O         0.320378         1.979272         2.070665
 C         1.541738         1.102953         1.921221
 C         2.664311         1.922997         1.239799
 C         1.608564         1.922519         0.033872
 O         1.602092         2.513396        -1.271400
 C         1.022204         0.554956         0.434986
 C         0.874251        -0.842385        -0.168557
 H        -1.801248         1.561503         0.230763
 H        -1.082019         3.311625        -0.286237
 H        -0.708974         1.833569        -1.188706
 H         1.813173         0.692474         2.899597
 H         2.994137         2.911150         1.668158
 H         3.455912         1.253470         0.960444
 H         2.518742         2.421227        -1.676035
 H         0.009685        -1.451753         0.215422
 H         0.719512        -0.701531        -1.385716
 H         1.764320        -1.363863        -0.025674
