19
Iteration:  1761charge 0 multiplicity 1
 C        -1.180009         2.155911         0.008645
 C         0.159873         1.811932         0.589211
 O         0.410573         2.071795         1.969791
 C         1.505163         1.146103         1.944174
 C         2.602979         1.868500         1.154870
 C         1.682764         1.878881         0.015176
 O         1.871977         2.378108        -1.253131
 C         0.968986         0.592393         0.497296
 C         0.913612        -0.678274        -0.253906
 H        -2.056880         1.642195         0.451947
 H        -1.499174         3.181685        -0.015884
 H        -1.105399         1.880378        -1.121737
 H         1.606498         0.600894         2.910234
 H         2.891619         2.723887         1.817928
 H         3.565212         1.221513         1.095678
 H         2.221954         1.663667        -1.789686
 H         0.235061        -1.404780         0.212039
 H         0.505507        -0.444577        -1.176416
 H         1.972817        -1.186943        -0.334393
