19
Iteration:  2516charge 0 multiplicity 1
 C        -1.034812         2.244082         0.048219
 C         0.183060         1.765828         0.606068
 O         0.328437         1.845816         2.044192
 C         1.508443         1.137630         1.957223
 C         2.506977         2.119004         1.265749
 C         1.576321         1.962264        -0.042928
 O         1.881905         2.423598        -1.351608
 C         1.074195         0.520123         0.416869
 C         0.909503        -0.833908        -0.292013
 H        -1.836758         1.658070         0.470851
 H        -1.262174         3.233959         0.580589
 H        -1.134243         2.346687        -0.987300
 H         1.789193         0.774836         2.838480
 H         2.555744         3.120634         1.655731
 H         3.518816         1.677273         1.166683
 H         2.466211         1.731574        -1.757886
 H         0.152561        -1.530365         0.129234
 H         0.620138        -0.520976        -1.333811
 H         1.775976        -1.411989        -0.375053
