19
Iteration:  2010
 C        -1.091359         2.248236        -0.126355
 C         0.199040         1.874293         0.595046
 O         0.325714         1.983415         2.063592
 C         1.539650         1.017095         1.816628
 C         2.665184         1.830414         1.200352
 C         1.616892         2.012946         0.075487
 O         1.678666         2.400815        -1.330800
 C         0.962019         0.626809         0.484653
 C         1.014717        -0.719446        -0.099800
 H        -1.862159         1.458055         0.168284
 H        -1.428379         3.251298         0.037776
 H        -0.951651         2.081568        -1.243393
 H         1.747656         0.319019         2.750672
 H         3.240765         2.606117         1.781170
 H         3.351926         1.139939         0.738739
 H         2.447532         1.951795        -1.710809
 H         0.260929        -1.352724         0.390442
 H         1.005526        -0.788026        -1.252383
 H         1.928463        -1.115806         0.245799
