19
Iteration:    12
 C        -0.976222         2.335429        -0.010850
 C         0.234039         1.822542         0.606536
 O         0.320527         1.815138         1.973000
 C         1.572884         1.105498         1.883538
 C         2.520366         2.149735         1.238269
 C         1.630488         1.951514         0.028539
 O         1.772201         2.291562        -1.320229
 C         1.032684         0.543558         0.433001
 C         0.871841        -0.771301        -0.185359
 H        -1.859664         1.800465         0.329201
 H        -1.157174         3.404134         0.110441
 H        -0.926464         2.144451        -1.099285
 H         1.819266         0.684869         2.880965
 H         2.593191         3.061718         1.827322
 H         3.466190         1.610979         1.184482
 H         2.318691         1.533489        -1.711173
 H         0.168961        -1.276010         0.526705
 H         0.331632        -0.627334        -1.122254
 H         1.822671        -1.319053        -0.317875
