19
Iteration:   625
 C        -0.990083         2.161584        -0.189807
 C         0.190635         1.747515         0.621791
 O         0.341359         1.912183         2.040487
 C         1.522029         1.096978         1.903281
 C         2.604613         1.988267         1.255741
 C         1.654676         1.966134         0.028507
 O         1.672242         2.345783        -1.287846
 C         1.170385         0.603819         0.513531
 C         0.822486        -0.620874        -0.212611
 H        -1.966804         1.599232         0.149253
 H        -1.208787         3.275770        -0.127212
 H        -0.868882         1.992592        -1.249322
 H         1.796158         0.505719         2.988146
 H         2.728587         2.925701         1.788570
 H         3.568203         1.537440         1.042449
 H         2.563571         2.090937        -1.675299
 H         0.357987        -1.487904         0.573960
 H         0.178368        -0.297275        -1.003553
 H         1.628391        -1.219209        -0.590977
