19
Iteration:  1132
 C        -1.055383         2.304888         0.059022
 C         0.233174         1.811928         0.543903
 O         0.269553         1.830968         1.999777
 C         1.509468         1.058044         1.826488
 C         2.502680         2.149988         1.184682
 C         1.640435         1.960230        -0.013179
 O         1.945816         2.426084        -1.295743
 C         1.095807         0.516776         0.430404
 C         0.832524        -0.836409        -0.123527
 H        -1.821765         1.701719         0.586635
 H        -1.214411         3.342900         0.396987
 H        -1.266684         2.034926        -1.020380
 H         1.719306         0.460346         2.778882
 H         2.440554         3.161032         1.577040
 H         3.572182         1.857591         0.877990
 H         2.484089         1.648551        -1.607667
 H         0.099162        -1.449748         0.381845
 H         0.259727        -0.706927        -0.952359
 H         1.876231        -1.375299        -0.200767
