19
Iteration:  2004charge 0 multiplicity 1
 C        -1.064701         2.239055        -0.135829
 C         0.157333         1.868620         0.607531
 O         0.297838         1.980307         2.068652
 C         1.623957         1.002664         1.825105
 C         2.687743         1.863966         1.216279
 C         1.585028         2.073286         0.059057
 O         1.688761         2.355532        -1.310168
 C         0.962142         0.629246         0.481949
 C         0.993148        -0.723723        -0.124834
 H        -1.830192         1.628913         0.256337
 H        -1.436360         3.282244        -0.000900
 H        -0.981022         2.064857        -1.257278
 H         1.647060         0.390465         2.699302
 H         3.177131         2.613509         1.793588
 H         3.388682         1.107265         0.750903
 H         2.460944         1.930290        -1.777452
 H         0.157700        -1.353067         0.233935
 H         0.964590        -0.793009        -1.151981
 H         2.015453        -1.300044         0.151666
