19
Iteration:  2710
 C        -1.025645         2.247703        -0.109142
 C         0.184387         1.782372         0.548274
 O         0.324477         1.952195         2.030893
 C         1.518142         1.098288         2.001131
 C         2.592194         1.933399         1.204474
 C         1.639228         1.832453         0.020465
 O         1.658833         2.460120        -1.254404
 C         1.028289         0.525209         0.598191
 C         1.048334        -0.691900        -0.289527
 H        -1.733617         1.505745         0.064016
 H        -1.282657         3.270198         0.256869
 H        -0.883732         2.358696        -1.126004
 H         1.436759         0.502227         2.796852
 H         2.853914         2.981359         1.504371
 H         3.517242         1.385475         1.034408
 H         2.101536         1.904547        -1.924143
 H         0.316015        -1.452681        -0.020631
 H         0.776522        -0.267200        -1.297661
 H         2.034250        -1.142737        -0.407333
