19
Iteration:  3630
 C        -0.949348         2.351812        -0.060203
 C         0.245419         1.858742         0.587061
 O         0.312168         1.937215         2.063272
 C         1.451301         1.049080         1.846979
 C         2.553409         1.969766         1.174425
 C         1.617410         1.897618        -0.014189
 O         1.689947         2.476983        -1.250527
 C         1.008369         0.511452         0.429544
 C         0.982714        -0.877152        -0.140951
 H        -1.856829         1.873292         0.409983
 H        -1.012687         3.481395         0.466776
 H        -0.840305         2.171026        -1.187809
 H         1.741492         0.288009         2.587399
 H         2.828580         2.959169         1.665322
 H         3.520616         1.427205         1.083668
 H         2.331351         2.120136        -1.860654
 H         0.581690        -1.693665         0.484933
 H         0.453529        -0.818722        -1.078319
 H         1.991796        -1.194797        -0.464335
