19
Iteration:  2921charge 0 multiplicity 1
 C        -1.183928         2.316228         0.106507
 C         0.097629         1.732223         0.569361
 O         0.341625         1.900244         2.064503
 C         1.517352         1.099024         1.909623
 C         2.432572         2.025973         1.212494
 C         1.645433         1.905584        -0.017823
 O         1.950349         2.260910        -1.368785
 C         1.085396         0.581690         0.466283
 C         0.976661        -0.691829        -0.280044
 H        -2.169213         1.922765         0.467332
 H        -1.060074         3.330160         0.481162
 H        -1.282845         2.506566        -1.023036
 H         1.845663         0.418752         2.905740
 H         2.587598         3.143846         1.639208
 H         3.549616         1.719894         1.003887
 H         2.902869         2.209737        -1.436810
 H         0.109281        -1.401671        -0.037909
 H         0.818134        -0.432931        -1.473996
 H         1.866703        -1.260881        -0.273751
