19
Iteration:  1186
 C        -1.096582         2.140397        -0.072656
 C         0.271083         1.923989         0.603474
 O         0.343701         2.005911         2.114505
 C         1.528216         1.074900         1.886657
 C         2.513319         1.934882         1.154600
 C         1.604689         1.921511         0.014525
 O         1.825178         2.348419        -1.262882
 C         0.976134         0.603172         0.498186
 C         0.931680        -0.703664        -0.248591
 H        -1.740784         1.234431        -0.029132
 H        -1.701779         3.043565         0.190466
 H        -0.881388         2.379466        -1.228848
 H         1.917572         0.551775         2.841621
 H         2.879185         2.872796         1.545098
 H         3.388527         1.262049         0.819791
 H         2.642393         1.809157        -1.497371
 H         0.373663        -1.370696         0.398454
 H         0.415976        -0.572391        -1.179354
 H         1.952431        -1.241987        -0.532104
