19
Iteration:   802
 C        -1.093914         2.130082        -0.128038
 C         0.206027         1.811912         0.618121
 O         0.387096         2.012700         2.084521
 C         1.543782         1.109473         1.939394
 C         2.606965         1.995843         1.290920
 C         1.559996         2.000424         0.022025
 O         1.777523         2.368340        -1.320662
 C         0.996837         0.578266         0.472618
 C         0.926097        -0.764462        -0.307627
 H        -1.869022         1.469768         0.127643
 H        -1.403868         3.156214         0.217837
 H        -0.859768         2.055007        -1.247933
 H         1.639377         0.541429         2.915782
 H         2.984776         2.890468         1.818473
 H         3.510577         1.343081         1.073906
 H         2.614296         1.913665        -1.619920
 H         0.438447        -1.510634         0.383958
 H         0.222135        -0.776426        -1.103728
 H         1.830906        -1.137423        -0.692923
