19
Iteration:   125
 C        -1.077728         2.193301        -0.010825
 C         0.227503         1.891684         0.607847
 O         0.331919         2.006505         2.009386
 C         1.503223         1.056360         1.829492
 C         2.587381         1.912997         1.096900
 C         1.641328         1.993751        -0.010431
 O         1.785369         2.489093        -1.258522
 C         1.067900         0.602826         0.475863
 C         0.897769        -0.904284        -0.070398
 H        -1.851396         1.366667         0.165619
 H        -1.469684         3.274033         0.139734
 H        -0.872331         2.006774        -1.147954
 H         1.610626         0.407539         2.703297
 H         2.911758         2.779499         1.606950
 H         3.339493         1.186465         0.887536
 H         2.619200         2.125088        -1.557916
 H        -0.168222        -1.394126         0.183607
 H         0.816144        -0.777515        -1.146883
 H         1.713061        -1.478500         0.113886
