19
Iteration:  1447
 C        -1.128941         2.315063        -0.058330
 C         0.112723         1.777530         0.525494
 O         0.394408         1.952767         2.037839
 C         1.492687         1.008174         1.823542
 C         2.616352         1.947026         1.108529
 C         1.557348         1.941256        -0.019206
 O         1.896936         2.485330        -1.234615
 C         0.931550         0.600821         0.422519
 C         0.938789        -0.818966         0.019987
 H        -1.881099         1.680387         0.214518
 H        -1.254776         3.350218         0.228516
 H        -0.927182         2.254127        -1.187985
 H         1.845272         0.398475         2.769716
 H         3.097865         2.818281         1.501139
 H         3.401621         1.246696         0.747528
 H         2.667726         1.962553        -1.532603
 H         0.162455        -1.429306         0.510020
 H         0.820727        -0.889890        -1.150721
 H         1.848179        -1.272078         0.159522
