19
Iteration:  4134
 C        -1.121084         2.336374         0.164556
 C         0.154063         1.841835         0.755992
 O         0.319480         1.907937         2.048344
 C         1.555549         1.058345         1.851034
 C         2.652694         1.997671         1.199999
 C         1.683581         1.849095         0.048773
 O         2.007710         2.223416        -1.409653
 C         1.008124         0.591219         0.389492
 C         0.787064        -0.687410        -0.365778
 H        -1.997868         1.793289         0.432148
 H        -1.345371         3.441628         0.393541
 H        -1.150921         2.499272        -0.928397
 H         1.845768         0.488106         2.715073
 H         2.685010         2.921394         1.711612
 H         3.606320         1.490837         1.217843
 H         1.129027         2.555149        -1.618047
 H        -0.113612        -1.178172         0.138133
 H         0.494758        -0.295324        -1.416463
 H         1.681622        -1.304220        -0.413894
