19
Iteration:  1198charge 0 multiplicity 1
 C        -1.055279         2.179678        -0.167207
 C         0.125906         1.835330         0.677236
 O         0.439707         1.961890         2.037652
 C         1.500748         1.084915         1.912553
 C         2.596037         1.930525         1.151899
 C         1.600644         1.873277         0.018420
 O         1.776618         2.353748        -1.259679
 C         1.003042         0.599571         0.531356
 C         0.900020        -0.604769        -0.187384
 H        -1.737569         1.245939        -0.093523
 H        -1.643365         3.026344         0.276805
 H        -0.750557         2.280256        -1.297836
 H         1.692461         0.493583         2.878423
 H         2.729067         2.917412         1.609845
 H         3.597949         1.391096         0.984584
 H         2.506541         1.986088        -1.787746
 H         0.294573        -1.430035         0.216606
 H         0.455097        -0.373433        -1.124167
 H         2.032722        -0.994717        -0.364985
