19
Iteration:  4205charge 0 multiplicity 1
 C        -1.002702         2.292687        -0.029740
 C         0.255366         1.869930         0.588230
 O         0.392947         1.896406         2.070462
 C         1.580267         0.985395         1.827566
 C         2.586122         1.851832         1.141014
 C         1.643133         1.947769         0.021951
 O         1.830013         2.443731        -1.310186
 C         0.984112         0.602105         0.469396
 C         0.698894        -0.773789        -0.147355
 H        -1.775653         1.583041         0.453821
 H        -1.187646         3.420306        -0.115230
 H        -0.954152         1.989416        -1.102116
 H         1.829819         0.381715         2.756131
 H         2.935289         2.700221         1.830882
 H         3.437199         1.256849         0.756655
 H         1.854605         3.402063        -1.326055
 H         0.014886        -1.291319         0.447145
 H         0.371595        -0.535356        -1.098979
 H         1.662962        -1.292390        -0.239146
