19
Iteration:  3625charge 0 multiplicity 1
 C        -0.939075         2.364325        -0.063934
 C         0.251462         1.803926         0.585202
 O         0.298949         1.897810         2.115445
 C         1.499457         1.082393         1.861365
 C         2.536830         1.994633         1.184745
 C         1.615154         1.914975        -0.003876
 O         1.713714         2.486251        -1.303682
 C         0.978307         0.555235         0.449377
 C         0.967980        -0.884368        -0.159442
 H        -1.879373         1.962452         0.318872
 H        -0.997966         3.301977         0.262778
 H        -0.810580         2.129714        -1.112686
 H         1.745191         0.290414         2.566899
 H         2.829170         2.904606         1.659449
 H         3.464603         1.432022         0.972704
 H         2.361179         1.885051        -1.780662
 H         0.479202        -1.721644         0.372259
 H         0.347757        -0.806641        -1.091014
 H         2.022614        -1.118281        -0.412743
