19
Iteration:  1544
 C        -1.033575         2.298999        -0.065361
 C         0.169180         1.776225         0.654995
 O         0.308992         1.815535         2.114090
 C         1.655319         1.075470         1.931158
 C         2.478785         2.095364         1.304190
 C         1.642619         1.947354        -0.000111
 O         1.917036         2.320485        -1.463145
 C         1.068336         0.604640         0.460101
 C         0.740230        -0.665074        -0.193112
 H        -1.865268         1.851709         0.370901
 H        -1.140710         3.348761        -0.213393
 H        -0.909121         1.726913        -1.147482
 H         1.881476         0.449308         2.815169
 H         2.503364         3.081575         1.712700
 H         3.491200         1.772688         0.948418
 H         2.463410         1.551175        -1.752385
 H         0.144997        -1.359415         0.447986
 H         0.229435        -0.571023        -1.230802
 H         1.630972        -1.251740        -0.483567
