19
Iteration:   436
 C        -1.173507         2.287948        -0.048845
 C         0.168006         1.789931         0.555406
 O         0.338974         1.875318         2.001687
 C         1.583010         1.133034         1.927256
 C         2.600191         2.138600         1.279044
 C         1.642952         1.919270         0.007205
 O         1.896077         2.397010        -1.304696
 C         1.086492         0.567219         0.400995
 C         0.818165        -0.859337        -0.212437
 H        -1.845313         1.799795         0.576809
 H        -1.286072         3.324694         0.050609
 H        -1.073658         1.814420        -1.032400
 H         1.733611         0.562457         2.862185
 H         2.602275         2.967911         1.883477
 H         3.554955         1.764990         1.212370
 H         2.532173         1.840204        -1.743174
 H         0.380509        -1.529175         0.613703
 H         0.114225        -0.748269        -1.046499
 H         1.521202        -1.498120        -0.457006
