19
Iteration:  1973
 C        -1.000561         2.270189        -0.065144
 C         0.199314         1.756977         0.594815
 O         0.394612         1.878473         2.126958
 C         1.536213         1.142975         1.965694
 C         2.456962         2.150502         1.199998
 C         1.648322         1.805346        -0.056376
 O         1.801936         2.287743        -1.302174
 C         1.054093         0.541883         0.522045
 C         0.854402        -0.655935        -0.295096
 H        -1.836514         1.979912         0.564274
 H        -1.066340         3.437008        -0.127174
 H        -1.111954         1.886437        -1.021533
 H         1.809504         0.659247         2.799042
 H         2.557335         3.201525         1.554735
 H         3.507439         1.647469         1.138530
 H         2.362289         1.807843        -1.902154
 H        -0.057802        -1.211702        -0.034390
 H         0.712014        -0.478389        -1.404029
 H         1.689848        -1.366392        -0.167047
