19
Iteration:  3651
 C        -1.152995         2.449427        -0.047231
 C         0.218309         1.782021         0.479497
 O         0.408954         1.972901         1.907961
 C         1.543585         1.045609         1.912065
 C         2.587256         1.846752         1.253828
 C         1.663235         1.840372         0.016434
 O         1.644146         2.531697        -1.227724
 C         1.007896         0.522113         0.408834
 C         1.019795        -0.864955        -0.103659
 H        -2.094955         1.850299         0.187511
 H        -1.403833         3.399661         0.614478
 H        -0.971144         2.337938        -1.177528
 H         1.575914         0.389657         2.783693
 H         2.886587         2.776389         1.820416
 H         3.559386         1.386226         0.944905
 H         2.585059         2.418554        -1.524503
 H         0.595224        -1.479618         0.616993
 H         0.396563        -1.009685        -0.956859
 H         2.065593        -1.223319        -0.255872
