19
Iteration:  4465
 C        -1.039454         2.302229         0.059508
 C         0.220405         1.830742         0.570888
 O         0.464789         1.976760         1.994890
 C         1.561994         1.015779         1.927961
 C         2.644821         1.812931         1.192493
 C         1.578306         1.894867        -0.031980
 O         1.853087         2.450972        -1.266952
 C         1.004965         0.593450         0.474733
 C         0.732286        -0.724191        -0.249653
 H        -1.750690         1.499699         0.131469
 H        -1.422872         3.340217         0.068310
 H        -0.894964         2.180524        -1.072666
 H         1.534548         0.459703         2.950448
 H         2.996034         2.701777         1.759567
 H         3.478497         1.155379         0.883123
 H         1.191035         3.089320        -1.587984
 H         0.302969        -1.401265         0.559575
 H         0.138568        -0.919531        -1.159702
 H         1.608069        -1.284445        -0.524246
