19
Iteration:  2189
 C        -1.171078         2.216464         0.023857
 C         0.123663         1.822571         0.579245
 O         0.359018         1.843630         1.990781
 C         1.540807         0.985375         1.813935
 C         2.592849         1.954442         1.206904
 C         1.627293         2.034912         0.005609
 O         1.858892         2.424447        -1.311707
 C         1.014952         0.677436         0.386506
 C         0.962692        -0.691338        -0.074273
 H        -1.885114         1.785616         0.668189
 H        -1.265051         3.320130        -0.036807
 H        -1.141229         1.740000        -0.989606
 H         1.733201         0.464806         2.677668
 H         2.703604         2.734478         1.893185
 H         3.540635         1.518210         0.884872
 H         2.266805         1.648803        -1.788509
 H         0.061187        -1.181787         0.259709
 H         1.014199        -0.685973        -1.103095
 H         1.884464        -1.254299         0.343742
