19
Iteration:  4008
 C        -0.960297         2.333310        -0.003686
 C         0.263391         1.895842         0.656493
 O         0.292597         1.798296         2.070343
 C         1.608265         1.016358         1.804019
 C         2.577735         2.009860         1.183341
 C         1.621364         1.869844        -0.089949
 O         1.877705         2.501918        -1.238446
 C         1.055455         0.551047         0.411811
 C         0.720200        -0.785236        -0.152689
 H        -1.871433         1.905678         0.541753
 H        -1.140546         3.397631         0.079494
 H        -1.212152         1.900789        -1.024867
 H         1.756414         0.415393         2.689115
 H         2.625513         2.978187         1.739172
 H         3.602951         1.552569         1.009134
 H         1.626637         2.068841        -2.091292
 H         0.079956        -1.225372         0.690105
 H         0.283214        -0.552199        -1.161535
 H         1.595002        -1.564751        -0.509328
