19
Iteration:  2714charge 0 multiplicity 1
 C        -1.059007         2.251017        -0.112428
 C         0.201906         1.763041         0.564414
 O         0.321777         1.955361         2.059939
 C         1.515474         1.132396         1.950001
 C         2.619782         1.947173         1.241165
 C         1.629945         1.835643         0.023305
 O         1.677611         2.450983        -1.244637
 C         1.026393         0.498163         0.564737
 C         1.045550        -0.685720        -0.296745
 H        -1.846044         1.431339         0.076523
 H        -1.285347         3.308939         0.173507
 H        -0.926860         2.370124        -1.240477
 H         1.554131         0.525231         2.997015
 H         2.861501         2.937308         1.486419
 H         3.561499         1.426394         1.079906
 H         2.032276         1.827013        -1.924742
 H         0.181163        -1.360527         0.019675
 H         0.801393        -0.377804        -1.447701
 H         2.005558        -1.116674        -0.485791
