19
Iteration:  4441
 C        -1.016978         2.321172        -0.047359
 C         0.219232         1.827604         0.615996
 O         0.376066         1.897835         2.115773
 C         1.621809         1.053791         1.819810
 C         2.616351         1.946642         1.108819
 C         1.641012         1.885840        -0.058395
 O         1.895389         2.459558        -1.240826
 C         1.026128         0.594767         0.468871
 C         0.661834        -0.869702        -0.156484
 H        -1.812321         1.723927         0.403729
 H        -0.972903         3.403586         0.181766
 H        -1.158902         2.349113        -1.212730
 H         1.681844         0.414707         2.709775
 H         2.855188         2.912444         1.594167
 H         3.502934         1.212704         1.105045
 H         1.360192         3.287247        -1.413765
 H         0.102869        -1.678989         0.311381
 H         0.109284        -0.753731        -1.132853
 H         1.462634        -1.341941        -0.576023
