19
Iteration:   531
 C        -1.125949         2.285124        -0.043905
 C         0.188938         1.828550         0.607601
 O         0.302434         1.957504         2.043070
 C         1.436354         1.083988         1.848175
 C         2.607491         1.863335         1.184367
 C         1.688187         1.906488        -0.038575
 O         1.789708         2.465427        -1.349072
 C         1.021447         0.588946         0.457189
 C         1.027497        -0.777869        -0.081481
 H        -1.929009         1.612183         0.317800
 H        -1.471506         3.230288         0.440614
 H        -1.053970         2.258291        -1.140816
 H         1.513568         0.431429         2.610053
 H         2.767729         2.851414         1.821732
 H         3.589923         1.262198         1.090802
 H         2.604901         2.178080        -1.784123
 H         0.308854        -1.361699         0.244209
 H         0.893787        -0.700247        -1.193198
 H         1.864171        -1.492995         0.265647
