19
Iteration:   786
 C        -1.057213         2.171241        -0.150604
 C         0.196121         1.813617         0.611415
 O         0.343416         2.011569         1.989665
 C         1.521769         1.078215         1.916848
 C         2.630609         1.939360         1.227652
 C         1.704662         1.873194         0.048648
 O         1.678603         2.425757        -1.275501
 C         1.037881         0.545143         0.600199
 C         0.910939        -0.680573        -0.234639
 H        -1.852429         1.349846        -0.031496
 H        -1.494555         3.120403         0.139204
 H        -0.797182         2.101296        -1.177907
 H         1.828972         0.520300         2.825331
 H         2.603474         2.973297         1.711177
 H         3.606268         1.418786         1.042320
 H         2.350350         1.904913        -1.826057
 H         0.501696        -1.623236         0.100632
 H         0.161894        -0.304109        -1.005972
 H         2.091853        -0.963901        -0.451178
