19
Iteration:   261charge 0 multiplicity 1
 C        -1.197450         2.240306        -0.057838
 C         0.167959         1.818518         0.544617
 O         0.356775         2.036232         2.000578
 C         1.499320         1.081953         1.868577
 C         2.615695         1.837184         1.194685
 C         1.625198         1.875181        -0.016853
 O         1.782863         2.427204        -1.274713
 C         1.012202         0.614633         0.487973
 C         1.049853        -0.745642        -0.113605
 H        -2.072953         1.699222         0.364826
 H        -1.249008         3.284882         0.323700
 H        -1.158811         2.150209        -1.146319
 H         1.602251         0.591984         2.826342
 H         3.005288         2.774655         1.614039
 H         3.449499         1.128718         1.000954
 H         2.609588         1.938026        -1.579486
 H         0.426273        -1.489363         0.455880
 H         0.560405        -0.734171        -1.118600
 H         2.010279        -1.045756        -0.266870
