19
Iteration:  3834charge 0 multiplicity 1
 C        -1.070517         2.427201         0.101296
 C         0.184584         1.772192         0.531635
 O         0.266312         1.856985         2.022891
 C         1.496775         0.988343         1.821793
 C         2.556429         2.005723         1.214184
 C         1.610937         1.957073        -0.055200
 O         1.858993         2.355137        -1.335903
 C         1.146115         0.582762         0.399425
 C         0.978339        -0.823605        -0.129457
 H        -1.977290         1.966829         0.614962
 H        -1.050541         3.438575         0.433892
 H        -1.056095         2.451736        -1.056169
 H         1.663359         0.340377         2.670349
 H         2.878562         2.870193         1.752030
 H         3.464137         1.447077         0.910832
 H         1.455671         3.214851        -1.471141
 H         0.362213        -1.354782         0.622835
 H         0.252327        -0.960865        -0.918399
 H         1.870237        -1.361320        -0.183044
