19
Iteration:    14
 C        -0.963598         2.352919         0.003672
 C         0.213036         1.827848         0.589880
 O         0.307847         1.791697         1.980411
 C         1.585922         1.103051         1.896772
 C         2.511563         2.173988         1.258879
 C         1.642919         1.961568         0.029026
 O         1.771184         2.264645        -1.330504
 C         1.049497         0.545654         0.425936
 C         0.873986        -0.759488        -0.201966
 H        -1.842826         1.750951         0.412138
 H        -1.067781         3.496166         0.102111
 H        -0.885794         2.159549        -1.164391
 H         1.833731         0.728580         2.778471
 H         2.556016         3.072058         1.806423
 H         3.452267         1.714241         1.196863
 H         2.241821         1.452584        -1.709821
 H         0.182172        -1.393303         0.595091
 H         0.313071        -0.654931        -1.129767
 H         1.687378        -1.325853        -0.334708
