19
Iteration:  1263charge 0 multiplicity 1
 C        -1.029665         2.385006        -0.052370
 C         0.077857         1.720540         0.631473
 O         0.284014         1.837698         2.087562
 C         1.619324         1.079329         1.806466
 C         2.539865         2.086314         1.206254
 C         1.691391         1.941807        -0.080566
 O         1.827168         2.412515        -1.357830
 C         1.090777         0.566641         0.417350
 C         0.848789        -0.854086        -0.060136
 H        -2.014473         1.999929         0.399548
 H        -1.024990         3.507176         0.064893
 H        -1.312742         2.290779        -1.217113
 H         1.876577         0.389832         2.751839
 H         2.431305         2.951690         1.847151
 H         3.650728         1.782082         1.230750
 H         2.719727         2.094351        -1.482628
 H         0.041237        -1.388849         0.401351
 H         0.704807        -0.821889        -1.088047
 H         1.781111        -1.546079        -0.028900
