19
Iteration:  2552
 C        -1.044833         2.071878        -0.200673
 C         0.238677         1.829198         0.613198
 O         0.411397         1.927407         2.058907
 C         1.538475         1.099456         1.886528
 C         2.644191         1.963782         1.193117
 C         1.643674         1.895555         0.091206
 O         1.630618         2.428788        -1.244301
 C         0.992050         0.575788         0.522509
 C         0.884532        -0.611794        -0.226950
 H        -1.792510         1.342701         0.221520
 H        -1.352212         3.079523        -0.111369
 H        -0.926280         1.827757        -1.267517
 H         1.645919         0.492165         2.864990
 H         2.887944         2.983895         1.714745
 H         3.565858         1.290809         1.048810
 H         2.604567         2.362012        -1.415315
 H        -0.055004        -1.129492        -0.142461
 H         0.790910        -0.235220        -1.196993
 H         1.885752        -1.225686        -0.309513
