19
Iteration:  1910charge 0 multiplicity 1
 C        -1.090210         2.205866        -0.073736
 C         0.142101         1.887381         0.643858
 O         0.291987         1.891718         2.062514
 C         1.527533         1.021749         1.861709
 C         2.664540         2.002838         1.155098
 C         1.653847         1.918554        -0.035753
 O         1.888682         2.440876        -1.334634
 C         0.980538         0.637780         0.477934
 C         0.866650        -0.756106        -0.073916
 H        -2.040825         1.655422         0.379281
 H        -1.343285         3.313585        -0.291116
 H        -0.955945         1.779123        -1.005656
 H         1.662737         0.233369         2.632410
 H         3.044378         2.899643         1.688636
 H         3.483054         1.348973         0.952696
 H         2.672892         2.062565        -1.729242
 H         0.388064        -1.416389         0.674070
 H         0.171337        -0.747817        -1.064250
 H         1.780098        -1.087886        -0.361999
