19
Iteration:  2801charge 0 multiplicity 1
 C        -1.058388         2.137390         0.012326
 C         0.256235         1.745364         0.516839
 O         0.308821         1.914748         1.961571
 C         1.539961         1.102925         1.860793
 C         2.490281         2.023144         1.228040
 C         1.625964         2.032252        -0.015865
 O         1.904508         2.535181        -1.221861
 C         1.083253         0.461528         0.454551
 C         0.782880        -0.827072        -0.166994
 H        -1.767046         1.531520         0.639165
 H        -1.122527         3.230363         0.121398
 H        -1.375254         1.972471        -1.060609
 H         1.880282         0.398558         2.736024
 H         2.718859         3.024603         1.585548
 H         3.458566         1.597947         0.893906
 H         2.875826         2.689057        -1.368788
 H         0.046973        -1.507566         0.392411
 H         0.280997        -0.465803        -1.218360
 H         1.643082        -1.403038        -0.253101
