19
Iteration:  3076charge 0 multiplicity 1
 C        -1.098788         2.267806         0.000520
 C         0.132520         1.719348         0.557472
 O         0.273495         1.895822         2.011967
 C         1.582072         1.044936         1.822838
 C         2.606494         2.015967         1.162294
 C         1.587368         1.923693        -0.066062
 O         1.921522         2.543215        -1.263170
 C         1.051940         0.558090         0.400822
 C         0.868939        -0.845774        -0.029242
 H        -2.002466         1.664834         0.094625
 H        -1.148412         3.218401         0.412437
 H        -0.920345         2.430910        -1.017602
 H         1.652769         0.397472         2.643737
 H         2.676432         3.044129         1.554469
 H         3.459242         1.399131         0.859119
 H         2.915372         2.420763        -1.266888
 H         0.310732        -1.350632         0.729738
 H         0.224631        -0.661860        -0.899136
 H         1.639062        -1.423831        -0.298020
