19
Iteration:   109
 C        -1.083509         2.167395        -0.062249
 C         0.198866         1.864158         0.522000
 O         0.374014         2.020091         2.008515
 C         1.468040         1.050625         1.883047
 C         2.689719         1.822718         1.243711
 C         1.643977         1.948154        -0.028906
 O         1.730462         2.475461        -1.325130
 C         0.918519         0.583713         0.483727
 C         0.937379        -0.748866        -0.103608
 H        -1.743486         1.450045         0.351800
 H        -1.376094         3.123250         0.246687
 H        -1.249615         2.205343        -1.078417
 H         1.733514         0.468050         2.813445
 H         3.117291         2.769109         1.721684
 H         3.532520         1.145078         0.914916
 H         2.658919         2.398269        -1.658004
 H         0.265507        -1.341771         0.380954
 H         0.829010        -0.789619        -1.209178
 H         1.970831        -1.231158         0.305402
