19
Iteration:  2608
 C        -1.158900         2.226198        -0.087593
 C         0.238427         1.803151         0.526058
 O         0.368989         1.830102         1.983033
 C         1.610633         1.034509         1.860094
 C         2.531187         2.122446         1.244709
 C         1.656402         1.859222        -0.004454
 O         1.829805         2.558290        -1.229900
 C         1.101362         0.525101         0.428611
 C         0.799024        -0.811016        -0.118763
 H        -1.919842         1.806747         0.589902
 H        -1.332695         3.215316         0.164229
 H        -1.308887         2.018392        -1.181861
 H         1.790255         0.625027         2.971480
 H         2.494263         3.210098         1.713030
 H         3.569253         1.676208         1.026849
 H         2.350476         1.898851        -1.744352
 H         0.135604        -1.480833         0.405619
 H         0.525639        -0.564401        -1.074887
 H         1.875890        -1.362380        -0.126582
