19
Iteration:    26charge 0 multiplicity 1
 C        -0.995876         2.399990        -0.035159
 C         0.259358         1.766628         0.592846
 O         0.268183         1.779701         2.064222
 C         1.557338         1.101968         1.899452
 C         2.509750         2.194858         1.280692
 C         1.638019         1.937019         0.003419
 O         1.787517         2.210676        -1.358703
 C         1.170047         0.619647         0.451580
 C         0.852363        -0.768971        -0.220465
 H        -2.011684         2.053662         0.414082
 H        -0.999614         3.523887         0.271410
 H        -1.061607         2.232795        -1.209789
 H         1.845382         0.451789         2.635048
 H         2.370215         3.175347         1.675503
 H         3.535064         1.971550         1.134138
 H         2.081715         1.424204        -1.788451
 H         0.172425        -1.472769         0.520003
 H         0.240996        -0.666577        -1.123492
 H         1.741948        -1.190126        -0.503289
