19
Iteration:  2219
 C        -1.075915         2.452482         0.076042
 C         0.146458         1.778373         0.639633
 O         0.265715         1.758064         2.056322
 C         1.527428         1.104345         1.900697
 C         2.493995         2.185241         1.134522
 C         1.633258         1.893461        -0.040745
 O         1.825983         2.320518        -1.356324
 C         1.093870         0.553759         0.458405
 C         0.989906        -0.886898        -0.219956
 H        -1.962761         2.014460         0.488118
 H        -1.004357         3.490696         0.306381
 H        -0.938191         2.314268        -1.062786
 H         1.830606         0.687316         2.885303
 H         2.370404         3.203336         1.654650
 H         3.569295         1.906610         1.001962
 H         2.754271         2.081417        -1.548971
 H         0.238043        -1.566486         0.260861
 H         0.749734        -0.558416        -1.317846
 H         1.905072        -1.439351        -0.271664
