19
Iteration:   645
 C        -0.991566         2.127529        -0.197187
 C         0.218442         1.901873         0.626087
 O         0.364298         1.946385         2.103757
 C         1.562764         1.080090         1.939461
 C         2.582942         1.973947         1.264191
 C         1.633894         1.942497         0.018990
 O         1.700302         2.442387        -1.357091
 C         1.000539         0.613358         0.553629
 C         0.858988        -0.781771        -0.219888
 H        -1.946981         1.594178         0.136770
 H        -1.337506         3.171857        -0.287057
 H        -0.775387         1.800068        -1.213878
 H         1.726053         0.189412         2.742572
 H         2.975721         2.909999         1.805933
 H         3.387148         1.321369         0.859217
 H         2.595712         2.262445        -1.745276
 H         0.414796        -1.550361         0.371916
 H         0.372843        -0.719162        -1.175615
 H         1.850643        -1.109564        -0.276482
