19
Iteration:  3186charge 0 multiplicity 1
 C        -1.043053         2.385921         0.049625
 C         0.260707         1.720416         0.590716
 O         0.302277         1.926930         2.025785
 C         1.569979         1.054054         1.924433
 C         2.452022         2.076468         1.278451
 C         1.627397         1.868596        -0.060012
 O         1.821445         2.326530        -1.391419
 C         1.043830         0.516380         0.518981
 C         0.890899        -0.743837        -0.256314
 H        -1.933828         2.078160         0.598813
 H        -0.992394         3.435993         0.032162
 H        -1.114530         2.128934        -0.947042
 H         1.586775         0.429129         2.755745
 H         2.416196         3.095378         1.761087
 H         3.526464         1.791440         1.205795
 H         2.713974         2.051702        -1.591111
 H         0.130668        -1.437510         0.136031
 H         0.782599        -0.500578        -1.384339
 H         1.973912        -1.298512        -0.288555
