19
Iteration:  3705charge 0 multiplicity 1
 C        -1.140443         2.288070        -0.075791
 C         0.168270         1.792364         0.632083
 O         0.362431         1.796906         2.096681
 C         1.578443         1.061175         1.800960
 C         2.558908         2.096129         1.182433
 C         1.694182         1.957299         0.004626
 O         1.888623         2.455557        -1.300508
 C         1.018361         0.537343         0.450766
 C         0.794647        -0.750085        -0.139441
 H        -1.944356         1.531665         0.120185
 H        -1.201975         3.254052         0.280849
 H        -0.909351         2.369472        -1.182280
 H         1.923186         0.437137         2.624051
 H         2.560939         3.048747         1.750688
 H         3.579057         1.674097         1.059350
 H         2.203263         1.641191        -1.778927
 H         0.054372        -1.237945         0.429364
 H         0.644681        -0.702899        -1.210658
 H         1.700926        -1.468366        -0.115492
