19
Iteration:  2062charge 0 multiplicity 1
 C        -1.093382         2.391521        -0.044167
 C         0.164760         1.690826         0.535819
 O         0.387626         1.860902         1.961709
 C         1.566047         1.104043         1.867656
 C         2.493146         2.098961         1.180513
 C         1.580377         1.998050        -0.005236
 O         1.843233         2.452928        -1.259324
 C         1.077605         0.478445         0.471379
 C         0.912934        -0.924003        -0.086761
 H        -2.012561         1.712988         0.041815
 H        -1.236458         3.320649         0.626305
 H        -0.936782         2.624123        -1.022201
 H         1.585079         0.688574         2.860235
 H         2.793728         3.127260         1.592808
 H         3.471601         1.589718         0.916924
 H         2.597898         2.027226        -1.658478
 H         0.342380        -1.501504         0.683442
 H         0.136519        -0.822504        -0.979182
 H         1.842910        -1.472154        -0.353286
