19
Iteration:  2716charge 0 multiplicity 1
 C        -1.075823         2.251099        -0.115472
 C         0.212349         1.755895         0.581536
 O         0.320202         1.957560         2.069638
 C         1.510520         1.142533         1.930856
 C         2.627688         1.952209         1.253219
 C         1.624888         1.842047         0.027473
 O         1.689856         2.441938        -1.240659
 C         1.027664         0.490360         0.541012
 C         1.028167        -0.681314        -0.309804
 H        -1.903762         1.461462         0.079795
 H        -1.298401         3.272709         0.151832
 H        -0.937619         2.351831        -1.287240
 H         1.663194         0.578686         3.016546
 H         2.874177         3.008265         1.543012
 H         3.599557         1.406176         1.093561
 H         1.995412         1.808040        -1.894529
 H         0.179639        -1.313662         0.010930
 H         0.818007        -0.459355        -1.392787
 H         2.072687        -1.166620        -0.498469
