19
Iteration:  2984
 C        -1.126378         2.164520        -0.108686
 C         0.169143         1.802872         0.639927
 O         0.394398         2.010403         2.073052
 C         1.544291         1.085954         1.947565
 C         2.644528         1.924825         1.289517
 C         1.622239         1.904723        -0.020693
 O         1.788336         2.507956        -1.285270
 C         0.991256         0.547796         0.478584
 C         0.889366        -0.761342        -0.265026
 H        -2.056590         1.645811         0.011286
 H        -1.047412         3.247614        -0.195741
 H        -0.823490         1.883864        -1.150309
 H         1.951044         0.404190         2.822332
 H         2.698496         2.896329         1.801866
 H         3.528051         1.354387         1.016572
 H         2.066918         1.852890        -1.933428
 H         0.084827        -1.481438        -0.093854
 H         0.717668        -0.349400        -1.193876
 H         1.835974        -1.398668        -0.232272
