19
Iteration:  4170
 C        -1.081767         2.293479         0.042955
 C         0.202955         1.829813         0.671211
 O         0.389610         1.938723         2.025131
 C         1.595878         1.017763         1.810369
 C         2.617418         1.919118         1.154377
 C         1.673225         1.909432        -0.007281
 O         1.970219         2.321513        -1.239796
 C         0.942303         0.566756         0.497177
 C         0.723640        -0.663319        -0.272811
 H        -1.890943         1.718474         0.494276
 H        -1.355796         3.376749         0.312829
 H        -1.090929         1.978187        -1.063779
 H         1.752865         0.525321         2.752202
 H         2.832173         2.896958         1.603060
 H         3.546208         1.489383         0.729486
 H         1.186501         2.778650        -1.534189
 H        -0.086452        -1.313390         0.037324
 H         0.422532        -0.402485        -1.282593
 H         1.552661        -1.322223        -0.380394
