19
Iteration:   779
 C        -1.014130         2.168928        -0.162170
 C         0.260318         1.799630         0.586976
 O         0.339879         1.986605         2.001864
 C         1.505026         1.080057         1.915874
 C         2.570706         2.014980         1.207289
 C         1.660423         1.763962         0.028935
 O         1.668431         2.431224        -1.232026
 C         1.043678         0.563054         0.576294
 C         0.921567        -0.637239        -0.203631
 H        -1.755826         1.424320         0.061606
 H        -1.403857         3.126314         0.261616
 H        -0.770194         2.192103        -1.251509
 H         1.743581         0.468815         2.908485
 H         2.963842         2.987798         1.644021
 H         3.460713         1.375182         0.949547
 H         2.239126         1.924534        -1.849751
 H         0.394839        -1.532296         0.208871
 H         0.407114        -0.427971        -1.097938
 H         1.905013        -0.888701        -0.559093
