19
Iteration:   467charge 0 multiplicity 1
 C        -0.899831         2.287546        -0.106543
 C         0.222927         1.712450         0.590003
 O         0.298896         1.796044         2.076685
 C         1.529882         1.078793         1.907926
 C         2.516911         2.078618         1.191704
 C         1.636131         1.934355        -0.020983
 O         1.704043         2.330759        -1.336653
 C         1.068349         0.629364         0.481077
 C         0.870829        -0.653087        -0.133915
 H        -1.751208         1.867690         0.372013
 H        -0.847111         3.395481        -0.074779
 H        -0.916432         2.034042        -1.205488
 H         1.717684         0.498203         2.732136
 H         2.529725         2.995984         1.859412
 H         3.576218         1.779070         1.203940
 H         2.549289         1.955284        -1.722824
 H         0.070598        -1.210900         0.462873
 H         0.500933        -0.542445        -1.218223
 H         1.868396        -1.252335        -0.179870
