19
Iteration:  4112charge 0 multiplicity 1
 C        -1.098490         2.402555         0.096340
 C         0.218417         1.863049         0.604422
 O         0.410534         1.839089         2.142571
 C         1.513197         1.023343         1.846137
 C         2.560897         1.988382         1.167626
 C         1.610901         1.925382         0.006280
 O         1.970912         2.177561        -1.347906
 C         0.981994         0.580791         0.426999
 C         0.826679        -0.679034        -0.287560
 H        -1.912130         1.765773         0.368293
 H        -1.465409         3.416477         0.403160
 H        -1.262104         2.642323        -0.957031
 H         1.830484         0.336811         2.630398
 H         2.728502         2.922840         1.658183
 H         3.471140         1.566854         0.783559
 H         1.518455         3.053124        -1.511686
 H         0.012745        -1.330969         0.131380
 H         0.510137        -0.428949        -1.341974
 H         1.809525        -1.109810        -0.218121
