19
Iteration:  1458
 C        -1.072456         2.282219        -0.090037
 C         0.200418         1.886867         0.619387
 O         0.377454         1.930462         2.012620
 C         1.508331         1.103153         1.788857
 C         2.510343         1.838164         1.059969
 C         1.591430         1.923312        -0.003812
 O         1.842054         2.482220        -1.192786
 C         0.977928         0.576896         0.449707
 C         0.948797        -0.810952        -0.005437
 H        -1.926647         1.832373         0.221716
 H        -1.304414         3.340018         0.082767
 H        -1.048138         2.168883        -1.227959
 H         1.741295         0.252237         2.563153
 H         2.872189         2.780365         1.404974
 H         3.326099         1.131685         0.810600
 H         2.669486         2.223490        -1.567107
 H         0.264725        -1.423720         0.601761
 H         0.741607        -1.040567        -1.143486
 H         1.865595        -1.084529         0.296032
