19
Iteration:  3581charge 0 multiplicity 1
 C        -1.013772         2.240803        -0.053834
 C         0.228304         1.789651         0.579908
 O         0.330104         1.824635         2.093431
 C         1.570215         1.041672         1.849627
 C         2.561556         2.165073         1.242604
 C         1.600484         1.992707         0.068433
 O         1.848016         2.292126        -1.302008
 C         1.075254         0.569366         0.488514
 C         0.765115        -0.663992        -0.314815
 H        -1.785525         1.771480         0.604751
 H        -1.188888         3.260726         0.105484
 H        -1.126216         1.868240        -1.090832
 H         2.011442         0.537187         2.728228
 H         2.591692         3.114502         1.753036
 H         3.601582         1.843597         1.143939
 H         2.278311         1.545272        -1.799584
 H        -0.007460        -1.213238         0.209790
 H         0.398792        -0.515662        -1.356302
 H         1.626894        -1.333903        -0.303194
