19
Iteration:  4738charge 0 multiplicity 1
 C        -1.102272         2.278405         0.107160
 C         0.271689         1.888960         0.675592
 O         0.404704         2.032902         2.092991
 C         1.479985         1.103924         1.906486
 C         2.623688         1.824765         1.163780
 C         1.619100         1.929880         0.088490
 O         1.813342         2.302191        -1.327281
 C         1.032377         0.545308         0.429596
 C         0.866799        -0.745284        -0.435698
 H        -1.971275         1.697318         0.260594
 H        -1.482082         3.209309         0.326203
 H        -0.796218         2.179133        -0.949960
 H         1.738880         0.625161         2.856011
 H         3.188454         2.675756         1.539175
 H         3.327379         1.073489         0.902275
 H         1.186716         3.014962        -1.423049
 H        -0.000434        -1.399368        -0.090168
 H         0.742640        -0.591892        -1.515272
 H         1.782658        -1.385410        -0.395675
