19
Iteration:  2270
 C        -0.969047         2.362779        -0.179374
 C         0.171306         1.863238         0.645060
 O         0.295435         1.831813         2.104390
 C         1.579731         1.123108         1.913845
 C         2.580844         1.993586         1.249250
 C         1.635697         1.881201         0.027279
 O         1.586766         2.367676        -1.326345
 C         1.032718         0.612274         0.518566
 C         1.029269        -0.776475        -0.252269
 H        -1.791347         1.511181        -0.108758
 H        -1.372839         3.328667         0.252103
 H        -0.728300         2.589488        -1.238215
 H         1.887753         0.371167         2.798216
 H         2.909864         2.990890         1.670249
 H         3.455444         1.375721         1.058728
 H         2.340804         1.864093        -1.744060
 H         0.776565        -1.594562         0.458352
 H         0.287803        -0.975262        -1.117498
 H         2.074691        -0.995868        -0.559259
