19
Iteration:  3749
 C        -1.011961         2.093455        -0.040529
 C         0.268620         1.814537         0.587970
 O         0.306268         1.895438         2.079886
 C         1.531177         1.081863         1.907649
 C         2.609071         2.068865         1.216856
 C         1.743189         1.888631        -0.037822
 O         1.748689         2.364493        -1.262192
 C         1.096489         0.604680         0.511237
 C         0.705976        -0.598154        -0.281472
 H        -1.765201         1.383478         0.467912
 H        -1.309340         3.092972         0.091002
 H        -1.022617         1.712232        -1.092091
 H         1.777697         0.457860         2.785819
 H         2.682874         3.149297         1.518281
 H         3.588639         1.567529         1.238692
 H         2.568970         2.073689        -1.753516
 H        -0.178503        -1.077639         0.136805
 H         0.640362        -0.171447        -1.314973
 H         1.520929        -1.420732        -0.540753
