19
Iteration:  1061charge 0 multiplicity 1
 C        -1.037912         2.203867        -0.189323
 C         0.209630         1.752293         0.645059
 O         0.386868         2.036189         2.096546
 C         1.509938         1.163207         2.011349
 C         2.634313         1.866224         1.217947
 C         1.649030         1.898610        -0.013056
 O         1.639489         2.529143        -1.262684
 C         1.072311         0.521726         0.427881
 C         0.926860        -0.824003        -0.239979
 H        -2.092332         1.773770         0.004576
 H        -1.238535         3.299982        -0.229664
 H        -0.844324         1.849667        -1.272868
 H         1.755759         0.499469         2.822941
 H         2.877876         2.805840         1.799025
 H         3.509598         1.277905         1.109415
 H         2.432030         2.332720        -1.833319
 H         0.043943        -1.219801         0.299877
 H         0.562794        -0.842671        -1.327481
 H         1.693488        -1.425169        -0.044146
