19
Iteration:   554
 C        -1.179937         2.285032         0.045901
 C         0.205254         1.874346         0.523920
 O         0.284880         1.843035         1.976179
 C         1.540590         1.071462         1.870977
 C         2.574163         2.011486         1.181472
 C         1.610926         2.032761        -0.011272
 O         1.897167         2.364327        -1.270804
 C         1.036231         0.612627         0.375215
 C         0.911139        -0.804630        -0.089248
 H        -1.940240         1.557365         0.262446
 H        -1.510289         3.252293         0.440287
 H        -1.007662         2.326286        -1.065266
 H         1.752191         0.487657         2.721786
 H         2.969488         2.922799         1.820939
 H         3.476068         1.342111         0.884564
 H         2.678772         1.797065        -1.542284
 H         0.364418        -1.410135         0.433954
 H         0.675205        -0.941243        -1.177035
 H         1.938360        -1.272134         0.146561
