19
Iteration:  3967
 C        -1.205736         2.224723         0.060457
 C         0.207908         1.860158         0.583860
 O         0.366151         1.914124         2.025901
 C         1.646488         1.031162         1.831724
 C         2.604464         1.973696         1.179942
 C         1.589157         1.902868         0.031994
 O         2.043569         2.352940        -1.248404
 C         1.045585         0.634366         0.474914
 C         0.739179        -0.745823        -0.269414
 H        -2.045811         1.621094         0.591182
 H        -1.387933         3.253683         0.011980
 H        -1.276539         2.043225        -0.999195
 H         2.018994         0.340550         2.645735
 H         2.792083         2.930632         1.609675
 H         3.510866         1.520469         0.892891
 H         1.308138         2.915697        -1.514655
 H        -0.084841        -1.196941         0.274127
 H         0.306518        -0.495173        -1.268847
 H         1.490781        -1.412598        -0.420202
