19
Iteration:  2344charge 0 multiplicity 1
 C        -1.137357         2.085426         0.157023
 C         0.214347         1.725567         0.528686
 O         0.259287         1.908455         1.939127
 C         1.570704         1.070773         1.863241
 C         2.512345         2.139075         1.274723
 C         1.637619         1.882160        -0.047851
 O         2.018741         2.526697        -1.284032
 C         1.159325         0.548103         0.404580
 C         0.738876        -0.756036        -0.200520
 H        -1.887115         1.549730         0.795893
 H        -1.181188         3.196797         0.280595
 H        -1.317381         1.934107        -0.844088
 H         1.933583         0.700586         2.884210
 H         2.444692         3.099944         1.755594
 H         3.542301         1.852044         1.007218
 H         2.391132         1.958231        -1.964780
 H        -0.207354        -1.100379         0.170143
 H         0.544572        -0.607516        -1.185142
 H         1.639395        -1.513676        -0.163642
