19
Iteration:  3440
 C        -0.857331         2.476766        -0.053815
 C         0.198578         1.762448         0.615769
 O         0.316349         1.735726         2.044426
 C         1.578482         1.068516         1.865262
 C         2.476737         2.085365         1.194312
 C         1.586321         1.836199        -0.051927
 O         1.678736         2.438966        -1.325354
 C         1.045667         0.547792         0.470943
 C         0.903702        -0.860939        -0.089022
 H        -1.945112         2.231469         0.181118
 H        -0.862845         3.558015         0.272581
 H        -0.742008         2.378780        -1.193936
 H         1.824046         0.546690         2.845237
 H         2.503437         3.136605         1.420515
 H         3.571682         1.959945         1.161169
 H         2.633085         2.338635        -1.599509
 H         0.421697        -1.591175         0.435332
 H         0.265348        -0.739315        -1.007040
 H         1.908859        -1.249797        -0.457063
