19
Iteration:  3283
 C        -0.989750         2.273096        -0.111408
 C         0.232924         1.709057         0.556726
 O         0.342340         1.985819         1.965903
 C         1.585067         1.022599         1.848076
 C         2.598050         1.992986         1.249511
 C         1.639650         1.870258        -0.005997
 O         1.697936         2.492339        -1.240160
 C         1.125877         0.556439         0.500186
 C         0.740146        -0.809252        -0.096080
 H        -1.876811         1.517207        -0.069942
 H        -1.196492         3.290943         0.237349
 H        -0.635962         2.430828        -1.120687
 H         1.825832         0.318839         2.584406
 H         2.463912         2.958342         1.744514
 H         3.638678         1.743249         1.138787
 H         2.599804         2.371678        -1.548412
 H         0.096241        -1.339507         0.535689
 H         0.404246        -0.482613        -1.062013
 H         1.543696        -1.469841        -0.361969
