19
Iteration:  1230charge 0 multiplicity 1
 C        -0.925827         2.301459        -0.121742
 C         0.242461         1.838264         0.631927
 O         0.322709         1.924126         2.029683
 C         1.524342         1.119678         1.938399
 C         2.547396         2.016143         1.196351
 C         1.600662         1.952985         0.030143
 O         1.663734         2.361214        -1.270909
 C         1.164103         0.555142         0.489984
 C         0.851254        -0.842655        -0.243657
 H        -1.656257         1.516147         0.210706
 H        -1.331520         3.291786         0.242861
 H        -0.810751         2.302771        -1.307955
 H         1.790106         0.717778         2.999230
 H         2.690266         2.955672         1.716271
 H         3.536247         1.462892         1.059166
 H         2.275977         1.787273        -1.811418
 H         0.053650        -1.382789         0.257251
 H         0.546838        -0.580227        -1.227334
 H         1.760030        -1.554125        -0.351701
