19
Iteration:  2977
 C        -1.103860         2.134162        -0.099094
 C         0.157942         1.800096         0.668224
 O         0.426686         2.014184         2.027858
 C         1.522912         1.072250         1.924494
 C         2.592741         1.873665         1.300495
 C         1.601664         1.914015         0.001409
 O         1.808170         2.476903        -1.304141
 C         0.974237         0.585866         0.493645
 C         0.943220        -0.697915        -0.264190
 H        -2.084217         1.758286         0.279657
 H        -1.330131         3.210391        -0.073593
 H        -0.879528         1.889863        -1.164809
 H         1.726095         0.316572         2.818985
 H         2.843362         2.905791         1.832778
 H         3.612842         1.426752         0.970557
 H         2.050156         1.778993        -1.969974
 H         0.025507        -1.253276         0.059821
 H         0.886220        -0.475307        -1.438228
 H         1.821093        -1.221990        -0.205917
