19
Iteration:  2202
 C        -1.136962         2.329577         0.022715
 C         0.173031         1.846971         0.593477
 O         0.277857         1.774194         2.133685
 C         1.553257         1.056660         1.813904
 C         2.534982         2.089955         1.203571
 C         1.595737         1.977156        -0.029993
 O         1.873925         2.357424        -1.346005
 C         1.071025         0.615452         0.380764
 C         0.988428        -0.763085        -0.154424
 H        -2.017525         1.894025         0.562134
 H        -1.272397         3.459879         0.046265
 H        -1.360265         2.067901        -0.976030
 H         1.884051         0.293699         2.483121
 H         2.776715         3.028478         1.588763
 H         3.441479         1.498823         1.066976
 H         2.534809         1.727931        -1.676102
 H         0.125485        -1.241052         0.275045
 H         0.880191        -0.940826        -1.149590
 H         1.917410        -1.353893         0.196673
