19
Iteration:   944
 C        -1.118238         2.261955        -0.120101
 C         0.166511         1.785076         0.582835
 O         0.357114         1.972805         2.054947
 C         1.576090         1.065847         1.941507
 C         2.618804         2.005680         1.237576
 C         1.623854         1.830658         0.005778
 O         1.743299         2.462474        -1.285486
 C         1.041852         0.550128         0.483250
 C         0.929080        -0.760798        -0.198560
 H        -1.921548         1.663716        -0.020289
 H        -1.388477         3.270012         0.128130
 H        -0.878328         2.199616        -1.218759
 H         1.692768         0.414083         2.779738
 H         2.803106         2.908891         1.825312
 H         3.536414         1.447409         0.976581
 H         2.367057         1.920782        -1.790753
 H         0.249977        -1.546153         0.173001
 H         0.562372        -0.589830        -1.169877
 H         2.005456        -1.138737        -0.195272
