19
Iteration:     4
 C        -1.021442         2.280241        -0.052512
 C         0.241085         1.806021         0.613993
 O         0.347097         1.901685         1.997240
 C         1.537183         1.093249         1.885819
 C         2.559482         2.052507         1.196659
 C         1.612347         1.917585         0.007360
 O         1.777527         2.366320        -1.292398
 C         1.033828         0.562975         0.468316
 C         0.889540        -0.787176        -0.156531
 H        -1.985159         1.755047         0.254342
 H        -1.291202         3.366266         0.169057
 H        -0.972493         2.121477        -1.202005
 H         1.745515         0.606848         2.761236
 H         2.698320         2.981919         1.715781
 H         3.467056         1.504066         1.072034
 H         2.517479         1.851616        -1.711115
 H         0.033760        -1.320353         0.465247
 H         0.457501        -0.637363        -1.155830
 H         1.806043        -1.251122        -0.222458
