19
Iteration:  2132charge 0 multiplicity 1
 C        -1.014119         2.071403        -0.142350
 C         0.201574         1.684068         0.571042
 O         0.393229         1.983577         2.021499
 C         1.567285         1.100625         1.913351
 C         2.593036         2.072002         1.129025
 C         1.596361         1.909441         0.063625
 O         1.787697         2.484070        -1.236367
 C         1.078506         0.506105         0.567424
 C         0.730571        -0.698732        -0.193754
 H        -1.824202         1.534884         0.326691
 H        -1.226508         3.097161        -0.012412
 H        -1.027607         1.787906        -1.300795
 H         1.938500         0.548982         2.855796
 H         2.884286         3.017896         1.667914
 H         3.487410         1.512506         0.814308
 H         2.717051         2.574162        -1.424279
 H        -0.146430        -1.259094         0.214360
 H         0.410106        -0.285926        -1.213122
 H         1.547930        -1.376745        -0.404362
