19
Iteration:  1039
 C        -1.052318         2.198671        -0.094777
 C         0.201251         1.797231         0.554335
 O         0.364589         1.981418         1.988942
 C         1.531032         1.057075         1.870353
 C         2.618729         1.988476         1.186060
 C         1.593493         1.899414         0.029712
 O         1.796387         2.466240        -1.198693
 C         0.995874         0.522312         0.536983
 C         0.905325        -0.748704        -0.168150
 H        -1.941684         1.577567         0.291616
 H        -1.392173         3.249313        -0.028788
 H        -1.107400         1.923223        -1.176280
 H         1.841760         0.519307         2.769392
 H         2.835646         2.987869         1.649905
 H         3.517550         1.462015         0.914784
 H         2.348500         1.974061        -1.799560
 H         0.124675        -1.456284         0.117052
 H         0.551460        -0.425330        -1.161360
 H         1.820201        -1.171628        -0.207215
