19
Iteration:   218
 C        -1.087865         2.195945        -0.149273
 C         0.179051         1.805219         0.650678
 O         0.354799         2.016777         2.081366
 C         1.533764         1.093844         1.958044
 C         2.574092         1.974155         1.143359
 C         1.624852         1.871827        -0.016108
 O         1.800705         2.401231        -1.253237
 C         1.035067         0.566159         0.465344
 C         0.880992        -0.746981        -0.185761
 H        -1.922378         1.580526         0.154287
 H        -1.268773         3.251385         0.001658
 H        -0.871982         1.969201        -1.194600
 H         1.916485         0.535531         2.806609
 H         2.753629         3.027734         1.566079
 H         3.537914         1.398915         0.944179
 H         2.605724         2.105227        -1.764333
 H         0.480230        -1.413121         0.440266
 H         0.233098        -0.771401        -1.064987
 H         1.858158        -1.117715        -0.546137
