19
Iteration:  1002
 C        -1.283964         2.307874         0.037437
 C         0.108486         1.783276         0.601492
 O         0.323688         1.855299         2.092525
 C         1.509996         1.129115         1.878376
 C         2.516104         2.090644         1.247383
 C         1.689306         1.893113        -0.067211
 O         1.963249         2.294092        -1.359025
 C         1.161680         0.598769         0.406575
 C         0.938067        -0.694439        -0.206058
 H        -2.048566         1.600451         0.504174
 H        -1.498629         3.388456         0.225451
 H        -1.128944         2.140432        -1.020587
 H         1.739569         0.287376         2.570568
 H         2.633633         2.949720         1.912323
 H         3.550389         1.628053         1.096217
 H         2.815064         1.835356        -1.566889
 H         0.384420        -1.255018         0.573382
 H         0.281445        -0.531746        -1.219816
 H         1.702368        -1.361937        -0.607576
