19
Iteration:  3238charge 0 multiplicity 1
 C        -1.052543         2.315729        -0.148154
 C         0.178338         1.790035         0.664769
 O         0.262305         1.884140         2.071357
 C         1.500910         0.997954         1.798112
 C         2.629784         1.829584         1.116704
 C         1.636597         1.949731        -0.065023
 O         1.855804         2.637180        -1.320664
 C         0.966488         0.564475         0.506309
 C         0.954840        -0.807000         0.018299
 H        -2.038272         1.718232         0.144830
 H        -1.147448         3.375703         0.134686
 H        -0.934667         2.318234        -1.233561
 H         1.576995         0.610131         2.734984
 H         2.873170         2.637309         1.789395
 H         3.382798         1.201606         0.742723
 H         2.397860         2.007005        -1.811989
 H         0.594530        -1.406215         0.834779
 H         0.396825        -0.889693        -0.853755
 H         1.926604        -1.220070        -0.204625
