19
Iteration:  2624
 C        -1.080462         2.282238         0.092605
 C         0.209868         1.714992         0.518770
 O         0.271719         1.851225         1.969115
 C         1.529299         1.094542         1.851464
 C         2.502605         2.143589         1.232964
 C         1.661394         1.967092        -0.026297
 O         1.878334         2.521562        -1.296921
 C         1.162624         0.503357         0.425034
 C         0.877695        -0.924480        -0.141900
 H        -1.946769         1.776779         0.552147
 H        -1.147883         3.440860         0.361479
 H        -1.168553         2.148231        -0.966651
 H         1.764472         0.516036         2.675710
 H         2.384997         3.063363         1.670769
 H         3.504491         1.794014         1.205889
 H         2.650026         2.154888        -1.814296
 H         0.095727        -1.334834         0.558896
 H         0.147497        -0.975982        -1.113896
 H         1.658096        -1.551437        -0.340866
