19
Iteration:  3494charge 0 multiplicity 1
 C        -1.058770         2.240768        -0.062384
 C         0.212415         1.849190         0.557013
 O         0.358880         1.875404         2.113145
 C         1.541763         0.985371         1.813453
 C         2.577248         1.988010         1.212509
 C         1.671785         1.916311        -0.083144
 O         1.811349         2.527103        -1.300184
 C         0.992222         0.593080         0.488923
 C         0.813521        -0.786602        -0.080529
 H        -1.825624         1.360621         0.086602
 H        -1.468978         3.297387         0.176688
 H        -0.880468         2.401499        -1.211942
 H         1.847480         0.321272         2.674247
 H         2.662127         3.026658         1.632646
 H         3.594858         1.574649         0.902487
 H         2.502366         2.032368        -1.798298
 H         0.155783        -1.348460         0.467837
 H         0.627365        -0.842453        -1.157455
 H         1.751536        -1.320541         0.054562
