19
Iteration:  4916charge 0 multiplicity 1
 C        -1.141621         2.149352         0.050436
 C         0.292468         1.868404         0.626116
 O         0.411522         1.971775         2.046040
 C         1.588324         0.992753         1.863513
 C         2.705282         1.952878         1.199045
 C         1.738986         1.877203         0.036233
 O         1.833865         2.404895        -1.265767
 C         0.993494         0.578656         0.397657
 C         0.648899        -0.684918        -0.330006
 H        -1.640552         1.266485         0.576894
 H        -1.477353         3.116451         0.417409
 H        -1.189314         2.124695        -1.021223
 H         1.825281         0.454360         2.814847
 H         2.699467         3.015659         1.583429
 H         3.680651         1.532090         0.908839
 H         1.498138         3.308119        -1.251747
 H        -0.293372        -1.401777         0.050960
 H         0.354708        -0.424066        -1.442211
 H         1.414347        -1.461654        -0.257036
