19
Iteration:  1613charge 0 multiplicity 1
 C        -1.058286         2.220889        -0.058981
 C         0.209927         1.781430         0.585148
 O         0.373685         2.085405         2.023434
 C         1.533614         1.081668         1.907947
 C         2.550889         1.898005         1.108676
 C         1.572705         1.909599        -0.058869
 O         1.842364         2.433777        -1.250410
 C         0.965946         0.536091         0.534749
 C         0.899941        -0.759706        -0.140063
 H        -1.772427         1.397306         0.097693
 H        -1.520467         3.080958         0.540031
 H        -1.051586         2.468240        -1.093230
 H         1.679640         0.240956         2.685496
 H         2.937405         2.776785         1.629240
 H         3.368860         1.237352         0.915184
 H         2.734775         2.232358        -1.649408
 H         0.119070        -1.449568         0.221717
 H         0.853449        -0.642931        -1.307557
 H         1.789457        -1.282578         0.031711
