19
Iteration:  3498charge 0 multiplicity 1
 C        -1.086480         2.188609        -0.090630
 C         0.166069         1.882812         0.586263
 O         0.368288         1.903684         2.157058
 C         1.553556         1.005896         1.840457
 C         2.603699         1.962985         1.217168
 C         1.643269         1.917107        -0.093729
 O         1.849618         2.529833        -1.311329
 C         0.992045         0.588442         0.453305
 C         0.817402        -0.787376        -0.091928
 H        -1.739829         1.413488         0.084193
 H        -1.358550         3.212154         0.217786
 H        -0.932376         2.387051        -1.128209
 H         1.786053         0.297574         2.574259
 H         2.574074         2.998743         1.519230
 H         3.481597         1.463096         0.804585
 H         2.590307         2.107240        -1.759146
 H         0.017880        -1.414905         0.442779
 H         0.675091        -0.774915        -1.179779
 H         1.837796        -1.349269         0.028687
