19
Iteration:  2844charge 0 multiplicity 1
 C        -0.945154         2.211351        -0.223675
 C         0.213884         1.846655         0.577430
 O         0.332235         1.855782         2.089793
 C         1.521382         1.038350         1.833189
 C         2.672332         1.958011         1.160407
 C         1.594522         1.990367         0.063208
 O         1.701197         2.600207        -1.188613
 C         0.981012         0.595148         0.414664
 C         0.895039        -0.807649        -0.108058
 H        -1.688991         1.413631        -0.004514
 H        -1.318577         3.237068        -0.104997
 H        -0.818626         2.124008        -1.342028
 H         1.878953         0.398904         2.789256
 H         2.996084         2.844746         1.817420
 H         3.426241         1.141072         0.951715
 H         2.108974         1.829980        -1.649433
 H         0.410454        -1.466293         0.690307
 H         0.186575        -1.060248        -1.067835
 H         1.778143        -1.358224        -0.119517
