19
Iteration:  3720charge 0 multiplicity 1
 C        -1.050702         2.210333        -0.053587
 C         0.192956         1.754284         0.576011
 O         0.327725         1.884884         2.042412
 C         1.634594         1.013015         1.892119
 C         2.620590         2.123612         1.338097
 C         1.604511         2.015549        -0.003105
 O         1.832961         2.397789        -1.330699
 C         1.181862         0.606557         0.446411
 C         0.721569        -0.799842        -0.226798
 H        -1.971242         1.757976         0.236714
 H        -1.489807         3.284385         0.304729
 H        -1.018318         2.087321        -1.077577
 H         1.782685         0.254480         2.743354
 H         2.660241         3.124427         1.897489
 H         3.636417         1.827428         1.092617
 H         2.024865         1.632375        -1.875225
 H        -0.251135        -1.189155         0.167871
 H         0.463124        -0.492614        -1.244766
 H         1.431774        -1.518500        -0.280032
