19
Iteration:    94charge 0 multiplicity 1
 C        -1.210030         2.254091        -0.069582
 C         0.196826         1.865799         0.574060
 O         0.410915         2.009599         1.981321
 C         1.523577         1.091107         1.910107
 C         2.598563         1.830776         1.224754
 C         1.634384         1.848768        -0.017570
 O         1.730628         2.426101        -1.318188
 C         1.038414         0.573586         0.490500
 C         0.991526        -0.711502        -0.117895
 H        -2.090097         1.603497         0.319520
 H        -1.469317         3.352244         0.235342
 H        -0.906789         2.155359        -1.147531
 H         1.515702         0.419162         2.893132
 H         2.913355         2.732313         1.798952
 H         3.466420         1.127180         1.124216
 H         2.655912         2.269427        -1.672051
 H         0.322466        -1.560127         0.310468
 H         0.723544        -0.613151        -1.198142
 H         2.015618        -1.110565        -0.228198
