19
Iteration:  3578
 C        -1.019433         2.220992        -0.041009
 C         0.253076         1.803713         0.593615
 O         0.327491         1.838729         2.075272
 C         1.563270         1.042322         1.877992
 C         2.569319         2.161204         1.256111
 C         1.607880         1.988024         0.050731
 O         1.846757         2.298835        -1.322010
 C         1.065961         0.585185         0.474473
 C         0.766863        -0.682595        -0.334921
 H        -1.716448         1.768637         0.592890
 H        -1.213643         3.213702         0.186119
 H        -1.101418         1.817724        -0.969225
 H         1.989269         0.559156         2.804948
 H         2.539516         3.123047         1.821178
 H         3.584610         1.826130         1.185350
 H         2.297992         1.567875        -1.751504
 H        -0.136112        -1.282299         0.179768
 H         0.357942        -0.519815        -1.364182
 H         1.624695        -1.330304        -0.281553
