19
Iteration:   133charge 0 multiplicity 1
 C        -1.061923         2.198335        -0.040848
 C         0.161868         1.863809         0.596345
 O         0.363889         1.956596         2.035765
 C         1.543491         1.081549         1.890664
 C         2.597858         1.976828         1.138525
 C         1.550637         1.923128        -0.049081
 O         1.834343         2.511335        -1.252329
 C         1.075778         0.575767         0.423220
 C         0.833119        -0.885636        -0.101620
 H        -1.849082         1.554813         0.186015
 H        -1.353701         3.190233         0.031206
 H        -0.908560         2.165421        -1.120548
 H         1.847978         0.575892         2.706838
 H         2.889982         2.951029         1.568074
 H         3.491670         1.393399         0.889439
 H         2.578179         1.997524        -1.529761
 H        -0.070981        -1.301546         0.329703
 H         0.825624        -0.825745        -1.181754
 H         1.658954        -1.612744         0.281392
