19
Iteration:  1642
 C        -1.069589         2.404544        -0.139466
 C         0.185339         1.819909         0.607979
 O         0.325354         1.844679         2.101612
 C         1.563995         1.097127         1.886875
 C         2.613158         2.032810         1.184561
 C         1.646238         1.934331        -0.010476
 O         1.726160         2.382380        -1.307430
 C         1.081758         0.575747         0.409264
 C         0.881483        -0.824172        -0.074828
 H        -1.849255         1.691480         0.027457
 H        -1.513467         3.331176         0.224448
 H        -0.715889         2.469913        -1.310145
 H         1.763514         0.286514         2.592121
 H         2.923690         2.938364         1.708203
 H         3.599899         1.449383         1.068177
 H         2.458055         1.989286        -1.826765
 H         0.032094        -1.384461         0.398926
 H         0.620453        -0.978043        -1.152161
 H         1.718156        -1.534340         0.179894
