19
Iteration:  3201charge 0 multiplicity 1
 C        -1.097046         2.387643        -0.011372
 C         0.145938         1.917894         0.563413
 O         0.306154         1.928729         1.994639
 C         1.522026         0.982973         1.876311
 C         2.557654         2.045522         1.256312
 C         1.649721         1.903491         0.020681
 O         1.822151         2.394624        -1.323706
 C         1.073552         0.499416         0.451563
 C         0.954955        -0.906313        -0.192401
 H        -1.881470         2.021324         0.634630
 H        -1.149751         3.515961         0.196272
 H        -1.305566         2.125722        -1.106981
 H         1.980926         0.472160         2.832465
 H         2.553288         3.043243         1.797944
 H         3.653350         1.737604         1.111516
 H         2.645987         2.009065        -1.716073
 H         0.206747        -1.541801         0.311056
 H         0.417587        -0.765518        -1.141429
 H         1.836191        -1.388579        -0.251598
