19
Iteration:  1739
 C        -1.197226         2.170981        -0.101421
 C         0.160519         1.938988         0.633153
 O         0.369718         2.085310         2.088053
 C         1.492060         1.085807         1.869841
 C         2.699967         1.838415         1.192917
 C         1.586848         1.926608         0.022444
 O         1.836605         2.360098        -1.301772
 C         1.000022         0.608779         0.476492
 C         0.918168        -0.756113        -0.233824
 H        -1.896245         1.726903         0.658112
 H        -1.597949         3.159559        -0.194088
 H        -1.279064         1.636219        -1.167408
 H         1.652740         0.436544         2.745667
 H         3.264615         2.750287         1.609816
 H         3.499010         0.986658         1.006302
 H         2.785247         2.114511        -1.441415
 H         0.531692        -1.576026         0.387953
 H         0.432415        -0.751711        -1.150545
 H         2.071409        -0.986684        -0.367498
