19
Iteration:  2235charge 0 multiplicity 1
 C        -0.955288         2.455334         0.017465
 C         0.182797         1.624290         0.550412
 O         0.319521         1.881829         1.977610
 C         1.600717         1.154697         1.914353
 C         2.404381         2.181997         1.238441
 C         1.562885         1.820332         0.020595
 O         1.723527         2.305180        -1.313032
 C         1.083963         0.439052         0.508695
 C         0.970367        -0.785800        -0.277256
 H        -1.947130         2.025240         0.403573
 H        -0.802233         3.412984         0.672110
 H        -0.915793         2.707954        -1.000887
 H         1.949493         0.490673         2.710708
 H         2.325244         3.179929         1.531482
 H         3.435194         1.852123         1.141858
 H         2.690947         2.353226        -1.531181
 H         0.466812        -1.519343         0.360029
 H         0.542668        -0.615229        -1.196308
 H         2.052761        -1.200454        -0.420384
