19
Iteration:   120
 C        -1.102826         2.185192        -0.047329
 C         0.272622         1.885785         0.614376
 O         0.329457         2.022499         2.003811
 C         1.483082         1.064835         1.814351
 C         2.596215         1.878901         1.119140
 C         1.657742         2.008958         0.026020
 O         1.769269         2.478057        -1.282071
 C         1.015895         0.563642         0.479968
 C         0.899004        -0.846368        -0.062784
 H        -1.785369         1.462883         0.324515
 H        -1.485527         3.111688         0.250673
 H        -0.914421         2.063784        -1.060882
 H         1.542112         0.348479         2.669586
 H         3.042784         2.783778         1.662715
 H         3.408126         1.135248         0.862539
 H         2.646674         2.283915        -1.736656
 H         0.056334        -1.356506         0.202128
 H         0.856603        -0.822502        -1.179480
 H         1.881526        -1.525731         0.113604
