19
Iteration:  4849charge 0 multiplicity 1
 C        -1.015299         2.357750         0.040063
 C         0.180545         1.824925         0.698504
 O         0.432201         1.854632         2.093656
 C         1.520269         0.979145         1.860207
 C         2.590911         1.977306         1.126146
 C         1.602101         1.985169         0.017827
 O         1.823270         2.342221        -1.308165
 C         1.059647         0.580747         0.311697
 C         0.810062        -0.788366        -0.246523
 H        -1.924178         1.861608         0.464155
 H        -1.252605         3.414464         0.229549
 H        -0.819605         2.208551        -0.996946
 H         1.760938         0.338007         2.686153
 H         2.757064         3.021188         1.489624
 H         3.481998         1.402642         0.986763
 H         1.648393         3.323644        -1.300651
 H         0.181355        -1.305457         0.634254
 H         0.076710        -0.619171        -1.085649
 H         1.726510        -1.433684        -0.391977
