19
Iteration:   967charge 0 multiplicity 1
 C        -1.019812         2.247762         0.086924
 C         0.233168         1.820288         0.573117
 O         0.303909         1.912995         2.045882
 C         1.480812         1.149392         1.873880
 C         2.473744         2.079245         1.208318
 C         1.583745         1.947738        -0.005919
 O         1.883400         2.336806        -1.314014
 C         1.066878         0.555503         0.480940
 C         0.930056        -0.800054        -0.300398
 H        -1.743516         1.555590         0.332108
 H        -1.326886         3.208554         0.457924
 H        -1.051714         2.227941        -1.043739
 H         1.605035         0.547193         2.729843
 H         2.622250         3.043025         1.681281
 H         3.432668         1.534408         0.960284
 H         2.662896         1.822303        -1.593427
 H         0.342617        -1.490635         0.355719
 H         0.249519        -0.723023        -1.153938
 H         1.921448        -1.345417        -0.457767
