19
Iteration:  1817
 C        -1.061043         2.372795        -0.093963
 C         0.185971         1.743976         0.575893
 O         0.326711         1.751527         2.072238
 C         1.613927         1.040596         1.856692
 C         2.535955         2.229156         1.206308
 C         1.664036         1.930229        -0.019059
 O         1.799729         2.258941        -1.336916
 C         1.078677         0.627039         0.468653
 C         0.774334        -0.732993        -0.081637
 H        -1.966392         1.816786        -0.091071
 H        -1.094532         3.292838         0.449380
 H        -0.732362         2.625338        -1.248925
 H         2.042478         0.269330         2.591325
 H         2.504515         3.112546         1.914428
 H         3.622745         1.801932         0.935566
 H         2.712677         1.930953        -1.579057
 H        -0.181330        -1.003738         0.388207
 H         0.592309        -0.685567        -1.104201
 H         1.664840        -1.494844         0.005195
