19
Iteration:  1358
 C        -0.981071         2.181421        -0.150263
 C         0.197855         1.817030         0.669499
 O         0.315592         1.970856         2.127310
 C         1.587520         1.057692         1.935748
 C         2.608703         2.043881         1.113622
 C         1.626033         1.920462         0.049987
 O         1.777406         2.302798        -1.281562
 C         0.974441         0.578242         0.510081
 C         0.811558        -0.660658        -0.232906
 H        -1.853902         1.555112        -0.031680
 H        -1.272467         3.196266        -0.159824
 H        -0.631784         2.050190        -1.243548
 H         1.839777         0.403040         2.848816
 H         2.818395         3.039419         1.510293
 H         3.548585         1.495427         0.944658
 H         2.544257         1.820625        -1.666475
 H         0.171189        -1.445599         0.277707
 H         0.366489        -0.358999        -1.317868
 H         1.769855        -1.017730        -0.450096
