19
Iteration:    72
 C        -1.026651         2.308950        -0.036584
 C         0.193429         1.813813         0.575298
 O         0.300828         1.985576         2.083728
 C         1.520022         1.099139         1.897123
 C         2.590521         2.054542         1.122581
 C         1.557155         1.935659         0.052057
 O         1.804120         2.312564        -1.264165
 C         0.982890         0.566343         0.471864
 C         0.973012        -0.833878        -0.268005
 H        -1.902421         1.762659         0.473350
 H        -1.125885         3.396539         0.350080
 H        -0.927748         2.166076        -1.160505
 H         1.741963         0.501188         2.874578
 H         2.857851         3.025263         1.593273
 H         3.505696         1.448369         0.886221
 H         2.480033         1.677771        -1.504223
 H         0.429851        -1.684655         0.343718
 H         0.475864        -0.835961        -1.265752
 H         1.988523        -1.185585        -0.492714
