19
Iteration:  2260
 C        -0.970055         2.441419        -0.096495
 C         0.225282         1.781210         0.631567
 O         0.292756         1.898942         2.040985
 C         1.522929         1.077870         1.945414
 C         2.581043         2.080762         1.223789
 C         1.596850         1.882384         0.066685
 O         1.576884         2.327336        -1.312403
 C         1.091475         0.463653         0.482773
 C         1.043568        -0.801712        -0.260953
 H        -1.859501         1.683253        -0.130610
 H        -1.336729         3.414762         0.294216
 H        -0.550236         2.512198        -1.132657
 H         1.802511         0.372461         2.869214
 H         2.631094         3.191350         1.528948
 H         3.566886         1.600765         1.151375
 H         2.441002         2.151027        -1.763304
 H         0.721074        -1.591612         0.460829
 H         0.290281        -0.592664        -1.146455
 H         1.969136        -1.102991        -0.715737
