19
Iteration:  4360
 C        -1.017180         2.329120         0.053716
 C         0.150457         1.806914         0.601664
 O         0.392501         1.982967         2.120528
 C         1.573923         1.021853         1.846089
 C         2.563197         1.907483         1.137307
 C         1.618003         1.900687        -0.014198
 O         1.872644         2.243109        -1.341183
 C         0.969597         0.577825         0.515609
 C         0.842458        -0.679894        -0.292273
 H        -2.013368         1.967154         0.479092
 H        -1.172523         3.352039         0.422308
 H        -1.038161         2.174207        -1.004205
 H         1.814341         0.496843         2.760700
 H         2.949265         2.796161         1.694127
 H         3.387776         1.253943         0.867252
 H         1.781258         3.233946        -1.322250
 H         0.000286        -1.211694         0.044934
 H         0.648391        -0.330654        -1.290222
 H         1.695108        -1.356194        -0.315461
