19
Iteration:  3479
 C        -0.983055         2.345289        -0.073015
 C         0.229209         1.818327         0.602882
 O         0.343970         1.802501         1.931105
 C         1.559796         1.062746         1.862664
 C         2.586420         2.060671         1.218183
 C         1.656998         1.942872         0.028179
 O         1.704272         2.482448        -1.262713
 C         1.094433         0.530719         0.366702
 C         0.833896        -0.834289        -0.045740
 H        -1.824014         1.660487         0.165634
 H        -1.122383         3.285610         0.419097
 H        -0.876313         2.441670        -1.133581
 H         1.776829         0.395844         2.727869
 H         2.458291         3.013382         1.793233
 H         3.491105         1.467999         1.136182
 H         2.219227         1.929729        -1.835933
 H        -0.028451        -1.285182         0.647352
 H         0.364078        -0.779764        -1.044696
 H         1.733364        -1.431469        -0.111592
