19
Iteration:  4226charge 0 multiplicity 1
 C        -1.034584         2.336363        -0.082198
 C         0.205499         1.795971         0.638962
 O         0.374223         1.850195         2.056585
 C         1.529748         0.981110         1.801290
 C         2.710897         1.945937         1.153331
 C         1.673278         1.887112         0.017964
 O         1.755176         2.437493        -1.268385
 C         1.060347         0.638239         0.394597
 C         0.707143        -0.775818        -0.120271
 H        -1.958876         1.870285         0.408470
 H        -0.837523         3.469384         0.150141
 H        -1.067646         2.185213        -1.195725
 H         1.566401         0.304117         2.705341
 H         2.993989         2.988110         1.486919
 H         3.629433         1.361913         0.962285
 H         2.277245         3.254787        -1.143846
 H         0.062916        -1.149855         0.668451
 H         0.197082        -0.736960        -1.066170
 H         1.534372        -1.492974        -0.252984
