19
Iteration:  2291charge 0 multiplicity 1
 C        -1.070009         2.213460        -0.134225
 C         0.139386         1.812495         0.642451
 O         0.337174         1.896401         2.104217
 C         1.481112         1.006452         1.840632
 C         2.619131         1.885196         1.136319
 C         1.573459         2.029521         0.064118
 O         1.786859         2.446179        -1.305376
 C         1.025524         0.653642         0.470977
 C         1.022352        -0.663590        -0.118439
 H        -1.774520         1.277572        -0.166285
 H        -1.518548         3.213016         0.150422
 H        -0.624165         2.355924        -1.121813
 H         1.750064         0.153898         2.642308
 H         2.981196         2.850055         1.517199
 H         3.440119         1.265447         0.815687
 H         1.878684         1.598353        -1.752043
 H         0.688242        -1.358847         0.667786
 H         0.303877        -0.714977        -0.953554
 H         2.088961        -0.986108        -0.415428
