19
Iteration:  1647
 C        -1.023650         2.373720        -0.158989
 C         0.207075         1.810335         0.620525
 O         0.293734         1.855940         2.108627
 C         1.576709         1.029273         1.858126
 C         2.569077         2.057183         1.200589
 C         1.658008         1.922162        -0.017855
 O         1.710698         2.404003        -1.354386
 C         1.117791         0.569665         0.425337
 C         0.871050        -0.798166        -0.053956
 H        -2.028486         1.835833         0.009589
 H        -1.191267         3.406882         0.365728
 H        -0.774429         2.526330        -1.122950
 H         1.883014         0.290383         2.667473
 H         2.847537         3.003261         1.703192
 H         3.426390         1.445524         1.173824
 H         2.404789         1.860090        -1.798590
 H         0.036091        -1.312647         0.422121
 H         0.587433        -0.976232        -1.137389
 H         1.715585        -1.435060         0.143597
