19
Iteration:  3136charge 0 multiplicity 1
 C        -1.043736         2.199207        -0.117947
 C         0.200002         1.835516         0.633792
 O         0.398048         1.932403         2.105585
 C         1.533212         1.055720         1.931340
 C         2.557478         1.958026         1.278223
 C         1.600026         1.971387         0.006108
 O         1.728982         2.292378        -1.318848
 C         1.009841         0.619942         0.485512
 C         0.941453        -0.621630        -0.277850
 H        -1.979504         1.717563         0.215695
 H        -1.329289         3.336586        -0.076707
 H        -0.767408         1.986889        -1.237484
 H         1.808682         0.416917         2.892334
 H         2.951864         2.900965         1.672555
 H         3.527258         1.427148         1.203719
 H         2.213818         1.582680        -1.802309
 H        -0.036669        -1.129936        -0.132316
 H         0.875218        -0.368300        -1.349712
 H         1.815140        -1.311417        -0.254340
