19
Iteration:  2927
 C        -1.239457         2.307854         0.105055
 C         0.135656         1.725191         0.576117
 O         0.318258         1.900985         2.076662
 C         1.495442         1.075843         1.985446
 C         2.523839         2.029447         1.227271
 C         1.644618         1.919792        -0.055342
 O         1.946595         2.256784        -1.385587
 C         1.056251         0.596908         0.394868
 C         0.965990        -0.668462        -0.278194
 H        -2.182188         1.941202         0.482056
 H        -1.286223         3.393741         0.395444
 H        -1.205509         2.333783        -0.955820
 H         1.925997         0.549916         2.750219
 H         2.725741         2.948078         1.675046
 H         3.466849         1.551786         1.132675
 H         2.910774         2.131326        -1.486013
 H         0.132885        -1.269423        -0.039625
 H         0.960717        -0.441588        -1.275254
 H         2.015460        -1.139524        -0.219996
