19
Iteration:   254charge 0 multiplicity 1
 C        -1.183005         2.219027        -0.053287
 C         0.188927         1.804586         0.543611
 O         0.331700         2.109150         1.998674
 C         1.530619         1.005563         1.887818
 C         2.594865         1.824529         1.142300
 C         1.632448         1.922440         0.049507
 O         1.809280         2.456186        -1.294027
 C         0.958105         0.549479         0.546172
 C         1.030505        -0.763610        -0.133741
 H        -2.056748         1.738107         0.301471
 H        -1.444384         3.229673         0.178994
 H        -1.111050         2.177427        -1.162511
 H         1.668813         0.610565         2.871221
 H         3.023570         2.837561         1.532153
 H         3.496908         1.189218         0.872055
 H         2.603656         2.000706        -1.700030
 H         0.544594        -1.516860         0.420369
 H         0.519799        -0.616289        -1.053404
 H         2.158392        -1.061205        -0.340622
