19
Iteration:   941
 C        -1.089552         2.262139        -0.141475
 C         0.170673         1.765144         0.563579
 O         0.374823         1.946475         2.041853
 C         1.582427         1.091695         1.908595
 C         2.632195         1.990345         1.249825
 C         1.620425         1.848521         0.015768
 O         1.727909         2.459322        -1.265374
 C         0.999969         0.563266         0.519716
 C         0.918740        -0.750219        -0.197558
 H        -2.002052         1.633528         0.025904
 H        -1.441812         3.266793         0.092852
 H        -0.876931         2.212427        -1.177786
 H         1.612301         0.377274         2.784012
 H         2.900582         2.946119         1.798543
 H         3.550097         1.505391         0.952178
 H         2.336175         1.971163        -1.826823
 H         0.264691        -1.523793         0.247393
 H         0.621368        -0.603495        -1.220128
 H         2.064223        -1.153073        -0.134905
