19
Iteration:  3913
 C        -1.094793         2.296230        -0.053130
 C         0.201378         1.862718         0.589672
 O         0.391213         1.900174         2.042357
 C         1.524475         1.024110         1.871784
 C         2.673140         1.928327         1.194010
 C         1.660617         1.923047         0.049393
 O         1.684343         2.322148        -1.247446
 C         1.065784         0.622454         0.466716
 C         0.878939        -0.673767        -0.259706
 H        -1.918438         1.600876         0.251363
 H        -1.434858         3.234237         0.318700
 H        -1.260409         2.263978        -1.080766
 H         1.686631         0.335902         2.745373
 H         2.844963         2.889808         1.647604
 H         3.559268         1.397598         0.965374
 H         2.615976         2.183482        -1.469484
 H         0.100020        -1.227058         0.197767
 H         0.678363        -0.409293        -1.287899
 H         1.698805        -1.253762        -0.327844
