19
Iteration:  2424charge 0 multiplicity 1
 C        -0.985711         2.245413        -0.160245
 C         0.133312         1.737742         0.615399
 O         0.353192         2.009193         1.960398
 C         1.609613         1.136061         1.927164
 C         2.639775         1.903289         1.203790
 C         1.609754         1.916268         0.041504
 O         1.609129         2.504217        -1.176283
 C         1.031883         0.495097         0.530327
 C         0.967654        -0.841346        -0.260318
 H        -1.934823         1.681338         0.153989
 H        -1.275991         3.234978         0.186233
 H        -0.899251         2.178312        -1.328591
 H         1.763127         0.624261         3.028983
 H         2.809418         2.886531         1.698649
 H         3.523768         1.325155         1.113720
 H         2.423967         2.741462        -1.600341
 H         0.358520        -1.634152         0.190585
 H         0.561448        -0.596570        -1.294954
 H         1.884807        -1.391729        -0.480037
