19
Iteration:  3505
 C        -1.118922         2.135618        -0.120255
 C         0.164400         1.886816         0.657198
 O         0.393605         1.944894         2.179649
 C         1.551358         1.065892         1.864021
 C         2.592257         1.923386         1.151197
 C         1.575396         1.917766        -0.032527
 O         1.910880         2.528848        -1.327568
 C         0.993283         0.603697         0.394776
 C         0.829766        -0.806527        -0.113397
 H        -1.988879         1.369920         0.116850
 H        -1.474702         3.104161         0.424352
 H        -0.924179         2.231799        -1.274331
 H         1.730438         0.252732         2.624382
 H         2.765837         2.951632         1.585514
 H         3.519317         1.325107         0.869486
 H         2.739190         2.196216        -1.659882
 H         0.018613        -1.319261         0.232840
 H         0.632565        -0.688235        -1.188777
 H         1.755254        -1.343057         0.010140
