19
Iteration:  2172charge 0 multiplicity 1
 C        -1.177975         2.079262        -0.029644
 C         0.234224         1.861186         0.550889
 O         0.387268         2.033970         2.046801
 C         1.504124         1.036966         1.848997
 C         2.627591         1.910035         1.237788
 C         1.604222         1.966944        -0.027878
 O         1.840605         2.546690        -1.254888
 C         1.030846         0.606487         0.449971
 C         0.922784        -0.773296        -0.168310
 H        -1.987860         1.616930         0.652435
 H        -1.429805         3.151123        -0.155743
 H        -1.315141         1.639718        -1.003274
 H         1.561010         0.210678         2.648880
 H         3.088942         2.873580         1.647890
 H         3.421931         1.166053         0.977591
 H         2.061908         1.768045        -1.831896
 H         0.017909        -1.313814         0.199526
 H         0.992307        -0.820666        -1.336480
 H         1.692293        -1.442290         0.172227
