19
Iteration:   809charge 0 multiplicity 1
 C        -1.070522         2.140730        -0.099535
 C         0.178433         1.839530         0.621420
 O         0.386214         1.985124         2.082013
 C         1.510073         1.107753         1.921315
 C         2.564281         2.038134         1.274757
 C         1.556415         1.965377         0.040677
 O         1.821741         2.353992        -1.319473
 C         1.053739         0.604742         0.435442
 C         0.891551        -0.759474        -0.313248
 H        -1.884152         1.430368         0.232641
 H        -1.367195         3.137320         0.229171
 H        -0.947503         2.006696        -1.141120
 H         1.788435         0.460948         2.842376
 H         3.024383         2.949358         1.811725
 H         3.239535         1.314758         0.783528
 H         2.644291         1.896489        -1.452068
 H         0.545896        -1.506270         0.412127
 H         0.101340        -0.804907        -1.070164
 H         2.011588        -1.170869        -0.437399
