19
Iteration:  4537charge 0 multiplicity 1
 C        -1.052081         2.398369         0.093828
 C         0.225498         1.869918         0.698520
 O         0.330063         1.850775         2.100029
 C         1.557539         1.035929         1.873156
 C         2.653853         2.095277         1.187223
 C         1.610877         1.869708         0.052360
 O         1.837335         2.161433        -1.352198
 C         1.056168         0.607889         0.401620
 C         0.767850        -0.742199        -0.349308
 H        -1.905894         1.971394         0.661696
 H        -1.049688         3.465934         0.190276
 H        -1.425288         2.427663        -0.946887
 H         1.631144         0.220723         2.562576
 H         2.570431         3.105510         1.544414
 H         3.682896         1.725802         0.915716
 H         2.288064         3.053211        -1.428232
 H        -0.080971        -1.369894        -0.084448
 H         0.708096        -0.554424        -1.487659
 H         1.764186        -1.503459        -0.395599
