19
Iteration:  2370
 C        -1.128465         2.122233        -0.060482
 C         0.198712         1.831547         0.598799
 O         0.340059         1.727739         2.087722
 C         1.591399         1.010031         1.829796
 C         2.569609         2.235093         1.250272
 C         1.621556         2.046473         0.029955
 O         1.898812         2.368689        -1.307033
 C         1.149463         0.643542         0.413037
 C         0.724851        -0.722308        -0.172083
 H        -1.952598         1.630132         0.583003
 H        -1.344835         3.197679        -0.141052
 H        -1.209708         1.697947        -1.176901
 H         1.965564         0.330229         2.761797
 H         2.696343         3.232264         1.737422
 H         3.496909         1.758544         0.956753
 H         2.764783         2.069052        -1.603693
 H        -0.322856        -0.985912         0.116943
 H         0.602796        -0.612507        -1.346985
 H         1.455224        -1.489827        -0.065449
