19
Iteration:   680
 C        -1.171737         2.263428        -0.067236
 C         0.175906         1.743064         0.555584
 O         0.349574         1.943848         1.964247
 C         1.562079         1.097711         1.880346
 C         2.532958         1.988274         1.186411
 C         1.596746         1.903034        -0.059129
 O         1.854242         2.535268        -1.224137
 C         1.082379         0.502702         0.500997
 C         0.917664        -0.806413        -0.087524
 H        -1.985598         1.716497         0.507880
 H        -1.106301         3.378514         0.095088
 H        -1.151508         2.048374        -1.133059
 H         1.732328         0.379655         2.906711
 H         2.956856         2.917396         1.622661
 H         3.417787         1.453144         0.811766
 H         2.534335         2.125282        -1.832599
 H         0.045444        -1.411080         0.373604
 H         0.855547        -0.849028        -1.130885
 H         1.780134        -1.347805         0.004630
