19
Iteration:   703
 C        -1.104642         2.291522         0.060438
 C         0.199982         1.827922         0.553884
 O         0.261439         1.828618         1.962353
 C         1.522759         1.128491         1.843385
 C         2.536053         2.071841         1.235507
 C         1.677709         1.970694        -0.027638
 O         1.865298         2.505683        -1.370613
 C         1.047543         0.541046         0.436816
 C         0.941441        -0.943886        -0.073785
 H        -1.864923         1.726777         0.614813
 H        -1.094899         3.391560         0.338252
 H        -1.200944         2.235647        -1.047067
 H         1.727320         0.255955         2.607579
 H         2.644445         3.057641         1.652043
 H         3.531224         1.660204         1.151341
 H         2.646086         2.003854        -1.660748
 H        -0.041936        -1.240081         0.451954
 H         0.827659        -1.083414        -1.116254
 H         1.640769        -1.631991         0.169138
