19
Iteration:  1859
 C        -1.035638         2.300207        -0.128922
 C         0.168559         1.700900         0.515611
 O         0.374769         2.002614         1.985945
 C         1.503518         1.126645         1.838114
 C         2.693560         1.930083         1.179631
 C         1.707570         1.888522        -0.015068
 O         1.702848         2.562421        -1.206099
 C         1.002207         0.460429         0.503079
 C         0.828958        -0.882267        -0.045444
 H        -1.931175         1.647345        -0.061953
 H        -1.297606         3.190277         0.337528
 H        -0.867800         2.605777        -1.208258
 H         1.676487         0.619835         2.869629
 H         2.767077         2.959105         1.627694
 H         3.683258         1.400597         1.133945
 H         2.457204         2.310234        -1.759039
 H         0.109223        -1.498117         0.512627
 H         0.497055        -0.861441        -1.024579
 H         1.930143        -1.333149        -0.088398
