19
Iteration:   650charge 0 multiplicity 1
 C        -1.000527         2.130772        -0.180869
 C         0.216546         1.895621         0.641853
 O         0.356378         1.965432         2.116906
 C         1.523719         1.071828         1.911686
 C         2.597955         1.978817         1.218944
 C         1.651971         1.963707         0.014142
 O         1.716110         2.447807        -1.314513
 C         0.975492         0.579279         0.519345
 C         0.851457        -0.786021        -0.207108
 H        -1.807464         1.536862         0.211191
 H        -1.271239         3.199267        -0.312580
 H        -0.799814         1.802695        -1.221392
 H         1.713376         0.375107         2.658197
 H         2.950283         2.838326         1.704733
 H         3.476027         1.427910         0.878222
 H         2.575330         2.230122        -1.713640
 H         0.428346        -1.699928         0.433643
 H         0.507763        -0.762330        -1.281782
 H         1.953757        -1.185896        -0.221251
