19
Iteration:  1978
 C        -1.018952         2.287548        -0.065235
 C         0.187516         1.766379         0.610409
 O         0.387382         1.889290         2.119425
 C         1.520628         1.142055         1.910575
 C         2.510367         2.113922         1.190871
 C         1.629607         1.857016         0.030713
 O         1.782047         2.295107        -1.318693
 C         1.066643         0.525521         0.511929
 C         0.874471        -0.655124        -0.279829
 H        -1.986888         1.944326         0.449813
 H        -1.101288         3.332031        -0.201354
 H        -1.001646         1.835345        -1.144617
 H         1.853628         0.531190         2.889020
 H         2.704609         3.118882         1.606615
 H         3.380619         1.569385         0.923502
 H         2.425867         1.707863        -1.807343
 H        -0.044848        -1.177787         0.038929
 H         0.784450        -0.552996        -1.395297
 H         1.725186        -1.336312        -0.095552
