19
Iteration:   238
 C        -1.042709         2.189778        -0.093753
 C         0.200047         1.863809         0.622946
 O         0.391522         2.051513         2.004289
 C         1.502364         1.133720         1.894534
 C         2.584065         1.908708         1.134209
 C         1.510300         1.954527        -0.046527
 O         1.844779         2.466615        -1.254957
 C         0.872843         0.506749         0.630484
 C         0.989461        -0.834553        -0.209490
 H        -1.808449         1.442118         0.344617
 H        -1.419004         3.220946         0.216151
 H        -0.832608         1.944177        -1.122579
 H         1.661452         0.491758         2.816657
 H         3.036302         2.750353         1.651292
 H         3.405073         1.242096         0.837637
 H         2.571699         1.913462        -1.571902
 H         0.545937        -1.770234         0.292759
 H         0.407000        -0.833553        -1.182465
 H         1.944790        -0.978068        -0.476259
