19
Iteration:  3685
 C        -1.030850         2.322408         0.039005
 C         0.202526         1.840704         0.634819
 O         0.274232         1.852875         2.049026
 C         1.525459         1.065189         1.918157
 C         2.522042         1.945396         1.069646
 C         1.560927         1.937045        -0.067212
 O         1.879719         2.500759        -1.268793
 C         0.982123         0.556562         0.367451
 C         0.942014        -0.824728        -0.074489
 H        -1.669579         1.441452         0.075129
 H        -1.326826         3.422572         0.293028
 H        -0.780883         2.529356        -0.999730
 H         1.890462         0.286220         2.625390
 H         2.757059         2.991487         1.489728
 H         3.422203         1.410992         0.733377
 H         2.639161         2.134609        -1.739834
 H         0.312291        -1.382439         0.569940
 H         0.624547        -0.904308        -1.081899
 H         1.903864        -1.323827        -0.113209
