19
Iteration:  4027charge 0 multiplicity 1
 C        -1.077706         2.406967        -0.108073
 C         0.218350         1.791180         0.597064
 O         0.429959         1.804514         2.067915
 C         1.597104         1.012252         1.875446
 C         2.605086         1.993515         1.166525
 C         1.654050         1.997592         0.073646
 O         1.781486         2.544991        -1.251703
 C         1.008948         0.478537         0.394027
 C         0.725461        -0.826938        -0.144042
 H        -2.016622         2.093564         0.270421
 H        -0.905478         3.526361         0.060469
 H        -0.897054         2.070456        -1.179237
 H         1.865682         0.281656         2.595268
 H         2.790477         2.988921         1.654298
 H         3.540158         1.411501         0.877085
 H         2.108885         1.781365        -1.748546
 H         0.158194        -1.387270         0.610148
 H         0.227156        -0.807057        -1.100048
 H         1.665927        -1.413295        -0.368371
