19
Iteration:  2460charge 0 multiplicity 1
 C        -1.071142         2.353818        -0.000707
 C         0.175704         1.847217         0.636399
 O         0.253965         1.839340         2.037649
 C         1.530835         0.966643         1.822552
 C         2.495406         2.000715         1.201353
 C         1.567723         1.989314        -0.018226
 O         1.882448         2.516211        -1.346323
 C         1.014211         0.570333         0.389381
 C         1.084061        -0.886211        -0.073973
 H        -1.807997         1.640168         0.305070
 H        -1.243342         3.373425         0.485740
 H        -1.024201         2.465831        -1.103518
 H         1.839338         0.497544         2.654676
 H         2.660962         2.939267         1.708052
 H         3.464013         1.539923         0.933296
 H         2.073449         1.715362        -1.847443
 H         0.571405        -1.565866         0.631607
 H         0.379316        -0.862047        -0.984862
 H         2.034801        -1.159013        -0.346430
