19
Iteration:  3041charge 0 multiplicity 1
 C        -1.060479         2.344690        -0.123931
 C         0.211557         1.807900         0.462377
 O         0.342485         1.735879         2.125001
 C         1.585953         1.031528         1.874934
 C         2.521190         2.093682         1.305495
 C         1.678997         1.964596         0.016680
 O         1.812063         2.501298        -1.424331
 C         1.108732         0.578216         0.380463
 C         0.767120        -0.916487        -0.022783
 H        -1.943704         1.850672         0.204503
 H        -1.133468         3.334785         0.188127
 H        -0.968934         2.356708        -1.244319
 H         1.923605         0.172437         2.621592
 H         2.557139         3.083398         1.837090
 H         3.599177         1.947784         1.231578
 H         2.754177         2.832665        -1.418780
 H         0.169158        -1.377746         0.785677
 H         0.005390        -0.876432        -0.748636
 H         1.503467        -1.603007        -0.411776
