19
Iteration:  2399charge 0 multiplicity 1
 C        -0.924292         2.112150        -0.188314
 C         0.176172         1.813047         0.679933
 O         0.373877         1.876942         2.143220
 C         1.509855         1.015123         1.908493
 C         2.553457         2.039939         1.181656
 C         1.627629         1.931201         0.007637
 O         1.689164         2.433138        -1.311083
 C         1.053697         0.614743         0.478503
 C         0.857404        -0.673848        -0.204502
 H        -1.860879         1.633894         0.194544
 H        -1.192136         3.161497        -0.152882
 H        -0.733830         1.808348        -1.162567
 H         1.886895         0.461271         2.831949
 H         2.848483         3.051645         1.526639
 H         3.429867         1.374441         1.029802
 H         2.523714         2.807224        -1.595702
 H         0.017782        -1.294745         0.087822
 H         0.750665        -0.415012        -1.202012
 H         1.761161        -1.407604        -0.243914
