19
Iteration:  1376charge 0 multiplicity 1
 C        -1.043594         2.260839        -0.206851
 C         0.203724         1.797542         0.680594
 O         0.414435         1.860587         2.146662
 C         1.575536         1.185533         1.934657
 C         2.512781         2.095928         1.257251
 C         1.576570         1.908252        -0.003956
 O         1.794537         2.239732        -1.361531
 C         1.102589         0.551408         0.522179
 C         0.788499        -0.679627        -0.287262
 H        -1.919858         1.497011         0.065982
 H        -1.203345         3.327269         0.121379
 H        -0.801327         2.374022        -1.217712
 H         1.820698         0.742742         2.821276
 H         2.759664         2.997178         1.912903
 H         3.442999         1.566031         1.038263
 H         2.628724         1.814565        -1.635923
 H         0.047126        -1.161160         0.342523
 H         0.393154        -0.387576        -1.186377
 H         1.589708        -1.447312        -0.598186
