19
Iteration:  2218
 C        -1.083040         2.447843         0.067080
 C         0.144777         1.790118         0.646006
 O         0.266608         1.752550         2.060994
 C         1.520672         1.109283         1.891868
 C         2.495128         2.178104         1.132791
 C         1.637314         1.897036        -0.035610
 O         1.829626         2.321569        -1.358392
 C         1.098329         0.562128         0.457716
 C         0.988916        -0.891644        -0.219025
 H        -1.974091         2.003362         0.533596
 H        -0.998937         3.480487         0.309970
 H        -0.939523         2.305088        -1.058014
 H         1.836823         0.649804         2.902593
 H         2.373273         3.212922         1.662734
 H         3.566144         1.896141         0.971832
 H         2.762446         2.064620        -1.569037
 H         0.240724        -1.567540         0.278754
 H         0.767294        -0.550700        -1.340740
 H         1.888245        -1.433717        -0.244407
