19
Iteration:  1054
 C        -1.130649         2.178820        -0.214262
 C         0.182277         1.783018         0.652093
 O         0.423247         2.033113         2.068138
 C         1.528048         1.134006         1.988072
 C         2.571602         1.894366         1.208147
 C         1.686692         1.863560        -0.008107
 O         1.673974         2.534920        -1.243345
 C         1.094363         0.535499         0.471930
 C         0.902544        -0.787734        -0.240228
 H        -2.014233         1.827309         0.146665
 H        -1.139120         3.249833        -0.089053
 H        -0.834739         1.985765        -1.264772
 H         1.578571         0.454523         2.832407
 H         2.939611         2.823620         1.639162
 H         3.501523         1.276210         1.130929
 H         2.424252         2.112139        -1.777904
 H         0.137333        -1.299519         0.329581
 H         0.710442        -0.769564        -1.246796
 H         1.812470        -1.585161        -0.201330
