19
Iteration:  4516
 C        -1.085669         2.371660         0.118935
 C         0.150592         1.792159         0.641552
 O         0.414429         1.862576         2.094513
 C         1.582337         1.038321         1.867186
 C         2.525257         1.965739         1.195598
 C         1.627157         1.960336         0.005483
 O         1.895411         2.192203        -1.366492
 C         1.032911         0.629731         0.446244
 C         0.796957        -0.659513        -0.312616
 H        -2.006000         1.847227         0.479209
 H        -1.102170         3.458750         0.121689
 H        -1.012702         2.234308        -1.043636
 H         1.953362         0.689838         2.828602
 H         2.786937         2.892599         1.718976
 H         3.394695         1.288771         0.873563
 H         2.096726         3.124385        -1.415596
 H        -0.013320        -1.261665         0.034103
 H         0.401356        -0.516360        -1.375922
 H         1.689032        -1.456702        -0.434054
