19
Iteration:  1827
 C        -0.952257         2.386425        -0.063514
 C         0.230715         1.810090         0.602683
 O         0.307774         1.767688         2.055832
 C         1.507528         1.022292         1.837955
 C         2.539121         2.146571         1.120567
 C         1.581190         1.991691         0.003207
 O         1.781717         2.319135        -1.364001
 C         1.160602         0.528145         0.491654
 C         0.776702        -0.768113        -0.050363
 H        -1.790752         1.692270        -0.071657
 H        -1.307700         3.278090         0.378578
 H        -0.684610         2.611841        -1.176020
 H         1.912631         0.429726         2.730741
 H         2.428608         3.076638         1.755991
 H         3.661215         1.882827         1.055899
 H         2.738663         2.125840        -1.550347
 H        -0.063990        -1.295548         0.417192
 H         0.616862        -0.649912        -1.049936
 H         1.623933        -1.581724         0.111594
