19
Iteration:  2009charge 0 multiplicity 1
 C        -1.085521         2.246489        -0.133081
 C         0.193725         1.871663         0.595182
 O         0.319559         1.984232         2.065856
 C         1.556271         1.012393         1.815976
 C         2.668647         1.834809         1.204340
 C         1.612406         2.023928         0.077875
 O         1.680382         2.393015        -1.330058
 C         0.959723         0.625979         0.484686
 C         1.014265        -0.719566        -0.100525
 H        -1.862696         1.466129         0.183552
 H        -1.440956         3.277807         0.029493
 H        -0.967579         2.084108        -1.195419
 H         1.729149         0.346021         2.722374
 H         3.248235         2.615202         1.799008
 H         3.350252         1.127556         0.727438
 H         2.438680         1.956971        -1.721104
 H         0.245676        -1.353470         0.377202
 H         1.007471        -0.796550        -1.266402
 H         1.903479        -1.125424         0.221008
