19
Iteration:  1388
 C        -1.019460         2.298229        -0.061891
 C         0.201839         1.779185         0.576366
 O         0.282816         1.908978         2.043015
 C         1.648050         1.055761         1.920788
 C         2.541724         2.160228         1.252644
 C         1.661580         1.930373         0.032537
 O         1.779040         2.221015        -1.335637
 C         1.154431         0.547212         0.507274
 C         0.757095        -0.702625        -0.228385
 H        -2.021892         1.659477        -0.042452
 H        -1.406812         3.262520         0.286889
 H        -0.828154         2.307271        -1.119483
 H         1.994795         0.550185         2.739693
 H         2.592754         3.173417         1.744512
 H         3.523854         1.679150         1.157318
 H         2.580717         1.801783        -1.643974
 H        -0.089724        -1.321494         0.112906
 H         0.391791        -0.284257        -1.126644
 H         1.624824        -1.362494        -0.434452
