19
Iteration:  2388
 C        -1.026902         2.117991        -0.152573
 C         0.210998         1.817960         0.704703
 O         0.310110         1.775755         2.139930
 C         1.630674         1.107249         1.849866
 C         2.579315         2.028816         1.173321
 C         1.646864         1.943862        -0.008391
 O         1.753325         2.387210        -1.309443
 C         1.038086         0.656639         0.463899
 C         0.805759        -0.616096        -0.215762
 H        -1.919340         1.541495         0.196445
 H        -1.206555         3.165615        -0.364774
 H        -0.787105         1.715075        -1.084875
 H         1.864106         0.322992         2.621870
 H         2.474846         2.951847         1.758178
 H         3.631244         1.709155         1.182669
 H         2.688691         2.551565        -1.457916
 H        -0.102313        -1.026451         0.212124
 H         0.680327        -0.586852        -1.232290
 H         1.733704        -1.259943         0.084498
