19
Iteration:   656charge 0 multiplicity 1
 C        -1.012185         2.153985        -0.160249
 C         0.226641         1.855146         0.645852
 O         0.348241         1.990248         2.115347
 C         1.464204         1.066588         1.837137
 C         2.623241         1.961558         1.134492
 C         1.632803         1.977809         0.014793
 O         1.743244         2.456719        -1.238381
 C         0.953723         0.546599         0.449836
 C         0.889670        -0.802417        -0.158605
 H        -1.764543         1.461660         0.350376
 H        -1.226513         3.229545        -0.231823
 H        -0.799771         1.762690        -1.150625
 H         1.809270         0.558262         2.906703
 H         2.858759         2.991436         1.647465
 H         3.625557         1.458526         1.024492
 H         2.556363         2.138814        -1.620232
 H         0.287585        -1.534002         0.330942
 H         0.641189        -0.777724        -1.196788
 H         1.895876        -1.171906        -0.265014
