19
Iteration:  3931charge 0 multiplicity 1
 C        -1.158300         2.211836         0.038709
 C         0.189763         1.911524         0.658101
 O         0.351177         1.994961         2.099180
 C         1.572124         1.026116         1.911824
 C         2.593902         1.888461         1.279097
 C         1.662100         1.975794        -0.032470
 O         1.829973         2.334540        -1.417735
 C         1.052386         0.550848         0.459627
 C         0.834774        -0.703077        -0.325577
 H        -1.975643         1.498999         0.372804
 H        -1.449232         3.230391         0.326648
 H        -0.834627         1.988048        -1.078168
 H         1.860675         0.398788         2.734192
 H         2.959022         2.791926         1.822663
 H         3.470866         1.208235         0.977324
 H         2.536982         2.992380        -1.444308
 H        -0.000142        -1.384952         0.100213
 H         0.471588        -0.521453        -1.380487
 H         1.794539        -1.438679        -0.225505
