19
Iteration:  3682charge 0 multiplicity 1
 C        -1.046009         2.345666         0.042855
 C         0.206678         1.837044         0.635602
 O         0.261000         1.876719         2.046528
 C         1.515690         1.059061         1.899079
 C         2.533508         1.933704         1.063852
 C         1.579953         1.955450        -0.049576
 O         1.863503         2.519022        -1.285985
 C         0.980198         0.525457         0.384078
 C         0.956618        -0.839287        -0.066360
 H        -1.721068         1.456729         0.079076
 H        -1.270893         3.274754         0.368254
 H        -0.734612         2.508988        -1.062074
 H         1.808582         0.307495         2.591083
 H         2.801126         2.894250         1.502784
 H         3.442958         1.373429         0.717089
 H         2.684228         2.132554        -1.625125
 H         0.366010        -1.401181         0.614801
 H         0.639145        -0.904139        -1.114908
 H         1.957384        -1.401484        -0.170493
