19
Iteration:  4486
 C        -1.069084         2.273159         0.031227
 C         0.236284         1.915373         0.624716
 O         0.378951         2.009361         2.170701
 C         1.513050         1.013182         1.814834
 C         2.654760         1.867292         1.133703
 C         1.692630         1.915515         0.051562
 O         1.884611         2.327583        -1.305456
 C         0.955168         0.603168         0.439663
 C         0.786839        -0.773997        -0.283045
 H        -1.900464         1.593008         0.220714
 H        -1.447493         3.314351         0.203980
 H        -1.253556         2.226418        -1.105510
 H         1.877097         0.347058         2.683738
 H         3.011874         2.798582         1.645213
 H         3.508263         1.178861         0.856016
 H         1.296018         3.106654        -1.479342
 H         0.194764        -1.473167         0.313772
 H         0.388669        -0.607604        -1.291558
 H         1.577837        -1.268918        -0.654200
