19
Iteration:  2061charge 0 multiplicity 1
 C        -1.094878         2.381769        -0.042604
 C         0.161836         1.692987         0.527866
 O         0.394103         1.871034         1.957729
 C         1.563510         1.104411         1.873282
 C         2.502311         2.095416         1.174436
 C         1.572920         2.005215         0.001353
 O         1.844150         2.457159        -1.251769
 C         1.068642         0.477814         0.475661
 C         0.909990        -0.933889        -0.088695
 H        -2.012259         1.736126         0.028431
 H        -1.220259         3.329093         0.632145
 H        -0.938420         2.640083        -1.005756
 H         1.574682         0.709709         2.819324
 H         2.781289         3.097281         1.580494
 H         3.481217         1.573443         0.936083
 H         2.578192         2.017473        -1.676320
 H         0.351463        -1.540543         0.655413
 H         0.194305        -0.838650        -0.974477
 H         1.881185        -1.489430        -0.368661
