19
Iteration:   761
 C        -0.965001         2.219037        -0.132286
 C         0.215952         1.766278         0.630408
 O         0.304534         1.933488         2.062975
 C         1.523283         1.171761         1.964235
 C         2.578191         1.990951         1.167714
 C         1.610127         1.966913         0.056326
 O         1.701850         2.414582        -1.274881
 C         1.075161         0.553541         0.485561
 C         0.932548        -0.810325        -0.266092
 H        -1.826303         1.569256        -0.036825
 H        -1.238982         3.197003         0.283816
 H        -0.688367         2.292261        -1.228117
 H         1.799985         0.684405         2.813136
 H         2.676105         2.969531         1.526349
 H         3.485186         1.439621         1.055493
 H         2.360009         1.844533        -1.739001
 H         0.199805        -1.449546         0.293437
 H         0.325735        -0.636953        -1.208444
 H         1.851591        -1.401325        -0.253002
