19
Iteration:  1127charge 0 multiplicity 1
 C        -1.045694         2.310380         0.076884
 C         0.189547         1.777357         0.528400
 O         0.269993         1.828431         2.014966
 C         1.524470         1.044744         1.847676
 C         2.529800         2.166421         1.184742
 C         1.645667         2.003812        -0.003605
 O         1.938986         2.431148        -1.316632
 C         1.050973         0.554372         0.438643
 C         0.834489        -0.899824        -0.132676
 H        -1.847449         1.737127         0.536967
 H        -1.164631         3.402899         0.208098
 H        -0.956013         2.003420        -1.029896
 H         1.874471         0.539323         2.709593
 H         2.519815         3.183672         1.646084
 H         3.543203         1.879527         1.068783
 H         2.493066         1.715322        -1.660385
 H         0.108742        -1.422584         0.556893
 H         0.367824        -0.796024        -1.245760
 H         1.661747        -1.510196        -0.266244
