19
Iteration:   621charge 0 multiplicity 1
 C        -0.981423         2.163406        -0.160716
 C         0.208947         1.731140         0.607603
 O         0.315212         1.908328         2.030129
 C         1.527090         1.115772         1.901029
 C         2.593497         2.040822         1.229296
 C         1.688147         1.957347         0.055237
 O         1.689491         2.324514        -1.251725
 C         1.185918         0.618281         0.528184
 C         0.773953        -0.668502        -0.237283
 H        -1.923699         1.707034         0.134196
 H        -1.212418         3.207005        -0.020387
 H        -0.902177         2.006046        -1.264439
 H         1.734306         0.471664         2.815152
 H         2.733707         3.038510         1.812029
 H         3.554610         1.557065         0.897224
 H         2.471599         2.060918        -1.719528
 H         0.410346        -1.345714         0.404477
 H         0.085853        -0.403990        -1.056383
 H         1.711081        -1.153596        -0.550041
