19
Iteration:  3135
 C        -1.041306         2.193928        -0.114644
 C         0.200323         1.829356         0.632675
 O         0.398619         1.942469         2.105459
 C         1.533228         1.049768         1.932104
 C         2.548188         1.953170         1.274059
 C         1.614542         1.972233         0.003485
 O         1.726943         2.297025        -1.316470
 C         1.006237         0.622460         0.480100
 C         0.946333        -0.623215        -0.274522
 H        -1.970304         1.710332         0.199735
 H        -1.321601         3.324793        -0.064827
 H        -0.769846         1.987326        -1.210829
 H         1.783521         0.396296         2.866410
 H         2.940537         2.903142         1.648017
 H         3.524436         1.420658         1.224778
 H         2.195828         1.585190        -1.785374
 H        -0.017246        -1.119585        -0.131527
 H         0.849380        -0.372838        -1.356307
 H         1.777230        -1.265877        -0.223844
