19
Iteration:  4553charge 0 multiplicity 1
 C        -1.044755         2.457496         0.135330
 C         0.243935         1.831045         0.595086
 O         0.384696         1.816855         2.056179
 C         1.538650         1.023419         1.856425
 C         2.534439         2.026907         1.179288
 C         1.677686         1.842423        -0.027676
 O         1.813184         2.205953        -1.336868
 C         0.970519         0.550317         0.452995
 C         0.828675        -0.664330        -0.307340
 H        -1.936464         1.985502         0.586043
 H        -1.104202         3.586437         0.306077
 H        -1.077098         2.058654        -0.928275
 H         2.007852         0.518691         2.785807
 H         2.623371         3.007428         1.752975
 H         3.558865         1.638987         1.198544
 H         1.995609         3.141066        -1.522044
 H        -0.056282        -1.144250         0.182426
 H         0.885438        -0.375919        -1.347010
 H         1.642759        -1.236729        -0.156617
