19
Iteration:  4819
 C        -1.068595         2.550642         0.102226
 C         0.211275         1.781548         0.605494
 O         0.376262         1.753287         1.993684
 C         1.558758         1.025394         1.825562
 C         2.622143         2.047270         1.202510
 C         1.636578         1.868104        -0.000861
 O         1.747175         2.326695        -1.363816
 C         0.983381         0.513129         0.410821
 C         0.890329        -0.784215        -0.170523
 H        -1.785608         1.982623         0.707422
 H        -0.802882         3.593626         0.282806
 H        -1.328702         2.483780        -0.932926
 H         1.905316         0.396143         2.678283
 H         2.603342         3.090065         1.610264
 H         3.617981         1.522648         1.291338
 H         2.064049         3.216639        -1.146203
 H         0.289358        -1.615584         0.317111
 H         0.360150        -0.452474        -1.115958
 H         1.788985        -1.165752        -0.500271
