19
Iteration:  4265charge 0 multiplicity 1
 C        -0.968007         2.432928         0.041854
 C         0.183099         1.756113         0.654068
 O         0.373671         1.871949         2.089259
 C         1.514880         0.964625         1.817098
 C         2.575765         2.076350         1.100541
 C         1.643930         1.844620         0.007414
 O         1.876567         2.354646        -1.325829
 C         0.981203         0.524620         0.397755
 C         0.782657        -0.752980        -0.148169
 H        -1.935570         2.129169         0.396533
 H        -1.076798         3.398673         0.387922
 H        -0.903508         2.268129        -1.044555
 H         1.779495         0.255017         2.550010
 H         2.586334         2.985940         1.691931
 H         3.572453         1.783641         0.708626
 H         2.304605         3.244640        -1.303484
 H         0.059752        -1.389404         0.486395
 H         0.174145        -0.651075        -1.143938
 H         1.572324        -1.446174        -0.410399
