19
Iteration:  1589charge 0 multiplicity 1
 C        -1.188862         2.134106         0.030951
 C         0.232543         1.888210         0.613077
 O         0.355955         2.050482         1.966481
 C         1.493420         1.110579         1.970844
 C         2.629028         1.933296         1.215731
 C         1.655511         1.886961        -0.030633
 O         1.886626         2.417103        -1.335867
 C         0.999773         0.531603         0.499208
 C         0.853773        -0.764048        -0.238000
 H        -1.918982         1.437759         0.244565
 H        -1.505752         3.122604         0.422778
 H        -1.127084         2.352901        -1.162636
 H         1.737042         0.642444         3.019168
 H         2.922495         2.822338         1.714468
 H         3.462970         1.202587         1.207714
 H         2.628296         2.022668        -1.833400
 H         0.115398        -1.462467         0.235680
 H         0.632553        -0.582330        -1.405250
 H         1.764710        -1.308966        -0.287219
