19
Iteration:  4772charge 0 multiplicity 1
 C        -1.102850         2.439089         0.080610
 C         0.157003         1.799463         0.668320
 O         0.452459         1.879462         2.062485
 C         1.522571         0.950919         1.857440
 C         2.581378         1.852479         1.172801
 C         1.640238         2.011130        -0.043829
 O         1.811410         2.292756        -1.373050
 C         0.895119         0.524714         0.547297
 C         0.956016        -0.642976        -0.277084
 H        -1.990631         1.913253         0.347809
 H        -0.921808         3.450695         0.167252
 H        -0.970062         2.322667        -0.990403
 H         1.786962         0.345508         2.690984
 H         2.835936         2.810432         1.663954
 H         3.435018         1.374460         0.758973
 H         1.417554         3.159374        -1.530002
 H         0.285127        -1.506297         0.178613
 H         0.823425        -0.492166        -1.358627
 H         1.978594        -0.991247        -0.043585
