19
Iteration:  1746charge 0 multiplicity 1
 C        -1.259341         2.154315        -0.082348
 C         0.124439         1.947944         0.642009
 O         0.400576         2.094729         2.046567
 C         1.492053         1.100161         1.893037
 C         2.718681         1.843810         1.262262
 C         1.635738         1.877876         0.016421
 O         1.843579         2.365463        -1.273843
 C         0.994215         0.620975         0.468238
 C         0.940913        -0.753291        -0.252069
 H        -2.084104         1.551078         0.443766
 H        -1.452915         3.241552        -0.210608
 H        -1.210189         1.715383        -0.946438
 H         1.685937         0.530025         2.770399
 H         3.282461         2.751105         1.396384
 H         3.315433         1.107566         0.910424
 H         2.687146         2.013202        -1.702832
 H         0.422274        -1.511734         0.330007
 H         0.460716        -0.783164        -1.270411
 H         1.919401        -1.095152        -0.466607
