19
Iteration:  4352charge 0 multiplicity 1
 C        -1.127935         2.340281        -0.019019
 C         0.203020         1.851369         0.695176
 O         0.408585         2.017520         2.119992
 C         1.544694         0.995423         1.874560
 C         2.617889         1.909632         1.125453
 C         1.618167         1.933844        -0.038113
 O         1.876978         2.236469        -1.303437
 C         0.944846         0.521589         0.565089
 C         0.879139        -0.751904        -0.346812
 H        -1.996341         1.763590         0.507081
 H        -1.115648         3.400235         0.345164
 H        -1.256326         2.478021        -1.162579
 H         1.795560         0.413815         2.704853
 H         3.041448         2.825514         1.622566
 H         3.508454         1.259882         0.810673
 H         1.674322         3.193991        -1.549797
 H        -0.071087        -1.224332        -0.055419
 H         0.621435        -0.142104        -1.257362
 H         1.772360        -1.276243        -0.319916
