19
Iteration:  2611charge 0 multiplicity 1
 C        -1.160017         2.241787        -0.051410
 C         0.234816         1.796354         0.526620
 O         0.352077         1.827901         1.964565
 C         1.602723         1.067904         1.877951
 C         2.520638         2.119339         1.250353
 C         1.667201         1.872086        -0.025673
 O         1.839983         2.557746        -1.241249
 C         1.110528         0.514205         0.433318
 C         0.821792        -0.853943        -0.122154
 H        -1.880082         1.777062         0.581694
 H        -1.316711         3.341566         0.191587
 H        -1.328676         2.076254        -1.144367
 H         1.828616         0.556229         2.851712
 H         2.463743         3.114921         1.731477
 H         3.545234         1.794102         1.076045
 H         2.378585         1.926924        -1.712708
 H         0.162710        -1.478706         0.500188
 H         0.455255        -0.518578        -1.163146
 H         1.745256        -1.480797        -0.176505
