19
Iteration:  4492charge 0 multiplicity 1
 C        -1.101982         2.311047         0.037855
 C         0.223459         1.871101         0.584198
 O         0.358064         1.982748         2.175976
 C         1.530901         0.974775         1.819304
 C         2.679398         1.895651         1.113075
 C         1.672091         1.895813        -0.013626
 O         1.896167         2.301569        -1.301877
 C         0.956515         0.616128         0.521680
 C         0.789574        -0.688710        -0.283263
 H        -1.795482         1.505340         0.406510
 H        -1.374006         3.344507         0.199008
 H        -1.053349         2.223259        -1.048600
 H         1.725479         0.311310         2.597856
 H         2.911469         2.819965         1.626551
 H         3.560601         1.289581         0.877883
 H         1.437104         3.157679        -1.467834
 H         0.146241        -1.447196         0.203344
 H         0.262641        -0.569276        -1.257238
 H         1.815069        -1.324715        -0.486756
