19
Iteration:  4397
 C        -1.071260         2.421790         0.004442
 C         0.274178         1.823196         0.584580
 O         0.339153         1.813858         2.141683
 C         1.571797         1.033933         1.739545
 C         2.606502         2.022950         1.242591
 C         1.657543         1.934346         0.010594
 O         1.830224         2.298158        -1.367233
 C         1.073830         0.554254         0.427330
 C         0.707609        -0.763644        -0.145709
 H        -1.718824         1.781666         0.605836
 H        -0.970989         3.515354         0.009412
 H        -1.193879         2.225699        -1.152343
 H         2.100123         0.217232         2.258979
 H         2.674433         2.944899         1.845767
 H         3.611825         1.519008         0.976334
 H         1.978107         3.291771        -1.360738
 H        -0.156994        -1.267051         0.429156
 H         0.275826        -0.551874        -1.200753
 H         1.546023        -1.430803        -0.181869
