19
Iteration:  2149
 C        -1.059858         2.011180        -0.059637
 C         0.269195         1.821116         0.654891
 O         0.364724         2.027116         2.003550
 C         1.543873         1.205075         1.958198
 C         2.609996         1.902861         1.143376
 C         1.642450         1.856639        -0.044909
 O         1.799446         2.589117        -1.203344
 C         0.982579         0.530346         0.518958
 C         0.789147        -0.787664        -0.267564
 H        -1.967465         1.479207         0.399762
 H        -1.409741         3.098710        -0.209469
 H        -1.022168         1.648424        -1.020074
 H         1.794731         0.778279         2.947861
 H         2.835562         2.968643         1.427841
 H         3.547005         1.327067         0.967947
 H         2.562790         2.255792        -1.690608
 H        -0.026940        -1.438995         0.059013
 H         0.761555        -0.584556        -1.385922
 H         1.663204        -1.483923        -0.151350
