19
Iteration:  1200charge 0 multiplicity 1
 C        -1.048742         2.183351        -0.179812
 C         0.107903         1.823038         0.670238
 O         0.440280         1.963135         2.033857
 C         1.509831         1.077688         1.922744
 C         2.620345         1.936927         1.160334
 C         1.592863         1.869751         0.011212
 O         1.770775         2.355341        -1.263480
 C         1.008210         0.612412         0.545839
 C         0.895831        -0.612591        -0.190905
 H        -1.760300         1.257713        -0.114190
 H        -1.600261         3.025338         0.295235
 H        -0.738031         2.262956        -1.201313
 H         1.657286         0.491667         2.821068
 H         2.741809         2.941944         1.641470
 H         3.594872         1.404249         1.025853
 H         2.466717         2.005434        -1.793071
 H         0.273988        -1.461256         0.177634
 H         0.430708        -0.373043        -1.140548
 H         2.013566        -0.962767        -0.326635
