19
Iteration:  4781
 C        -0.990784         2.452236         0.099313
 C         0.109366         1.802345         0.699474
 O         0.416897         1.851369         2.093596
 C         1.556556         0.985357         1.839457
 C         2.543089         1.914031         1.165288
 C         1.540915         2.013536        -0.041181
 O         1.827866         2.295772        -1.407998
 C         0.928792         0.584416         0.503611
 C         0.985055        -0.753083        -0.277759
 H        -1.935960         2.211960         0.527912
 H        -1.051263         3.501398         0.282103
 H        -0.958633         2.276458        -1.008924
 H         1.736467         0.257397         2.637779
 H         2.874378         2.704337         1.818695
 H         3.360244         1.219770         1.041122
 H         1.694071         3.175074        -1.762419
 H         0.249536        -1.469593         0.139849
 H         0.669650        -0.586578        -1.308168
 H         2.064729        -1.268389        -0.215300
