19
Iteration:  2615
 C        -1.143398         2.271713         0.004111
 C         0.223229         1.777029         0.527685
 O         0.324249         1.830454         1.946816
 C         1.580903         1.113910         1.896780
 C         2.505572         2.107923         1.247123
 C         1.675993         1.909793        -0.045826
 O         1.853453         2.549780        -1.255391
 C         1.124790         0.499242         0.446629
 C         0.854975        -0.897950        -0.135107
 H        -1.904322         1.659665         0.577621
 H        -1.247468         3.417588         0.179105
 H        -1.326270         2.141257        -1.038318
 H         1.881998         0.437587         2.650301
 H         2.423498         3.025264         1.763843
 H         3.569955         1.927091         1.150678
 H         2.480344         1.973742        -1.775249
 H         0.141034        -1.411087         0.580316
 H         0.369937        -0.628198        -1.168271
 H         1.602581        -1.633128        -0.302102
