19
Iteration:   942charge 0 multiplicity 1
 C        -1.100806         2.262339        -0.134387
 C         0.169451         1.770751         0.568451
 O         0.369058         1.955304         2.046556
 C         1.581716         1.083554         1.920025
 C         2.628745         1.995482         1.246003
 C         1.621200         1.840483         0.012819
 O         1.733393         2.460548        -1.272831
 C         1.013692         0.559690         0.507664
 C         0.919634        -0.752760        -0.199751
 H        -1.962875         1.657474         0.004644
 H        -1.427266         3.258903         0.101245
 H        -0.878160         2.205735        -1.185405
 H         1.633680         0.385402         2.783046
 H         2.872186         2.937127         1.814330
 H         3.541564         1.489607         0.959313
 H         2.337694         1.961100        -1.808408
 H         0.257944        -1.534512         0.219417
 H         0.605248        -0.601802        -1.181902
 H         2.067913        -1.151043        -0.149617
