19
Iteration:  2387
 C        -1.038508         2.116262        -0.148341
 C         0.209964         1.822319         0.699302
 O         0.305741         1.769967         2.139784
 C         1.636405         1.104034         1.849365
 C         2.581556         2.035495         1.178997
 C         1.649657         1.946647        -0.006464
 O         1.757812         2.384023        -1.310813
 C         1.041415         0.652055         0.458604
 C         0.799860        -0.613809        -0.216369
 H        -1.901706         1.562000         0.188095
 H        -1.211794         3.169781        -0.366946
 H        -0.792884         1.712716        -1.050277
 H         1.866996         0.372374         2.565103
 H         2.477009         2.949731         1.768387
 H         3.660252         1.739492         1.163805
 H         2.715838         2.521657        -1.431728
 H        -0.101429        -1.029680         0.236090
 H         0.689142        -0.588923        -1.235526
 H         1.707287        -1.260611         0.102618
