19
Iteration:   518charge 0 multiplicity 1
 C        -1.038844         2.262120        -0.015905
 C         0.176260         1.784301         0.567534
 O         0.349541         2.024736         1.960853
 C         1.505458         1.018707         1.876292
 C         2.556638         1.921263         1.186696
 C         1.611627         1.863173        -0.028186
 O         1.731833         2.477912        -1.247694
 C         0.981673         0.547656         0.502250
 C         0.987481        -0.780864        -0.110425
 H        -1.943649         1.591900         0.032080
 H        -1.113363         3.384766         0.095117
 H        -0.835143         2.316193        -1.076225
 H         1.732606         0.451571         2.763896
 H         2.800324         2.927070         1.692947
 H         3.528157         1.328979         1.029835
 H         2.534454         2.121019        -1.710276
 H         0.120809        -1.382438         0.057354
 H         1.148440        -0.701332        -1.188177
 H         2.045466        -1.101301         0.137173
