19
Iteration:   189
 C        -0.985063         2.230631        -0.093948
 C         0.307428         1.777443         0.544630
 O         0.313193         1.797247         1.993682
 C         1.537508         1.064693         1.931932
 C         2.534772         2.133413         1.276215
 C         1.663899         2.047259         0.000587
 O         1.728526         2.324457        -1.332352
 C         1.153109         0.609999         0.438468
 C         0.724058        -0.742230        -0.097316
 H        -1.790893         1.797354         0.444054
 H        -1.052450         3.261696         0.164223
 H        -0.921304         1.933554        -1.176009
 H         2.074714         0.642799         2.702416
 H         2.674854         3.093648         1.789848
 H         3.530900         1.716279         1.196992
 H         2.484424         1.925349        -1.823885
 H        -0.066442        -1.291016         0.556726
 H         0.194359        -0.680983        -1.046343
 H         1.667406        -1.431241        -0.417498
