19
Iteration:  4658charge 0 multiplicity 1
 C        -1.086855         2.322237         0.012993
 C         0.200256         1.837294         0.643010
 O         0.391916         1.774592         2.067860
 C         1.573498         1.006760         1.834924
 C         2.571171         1.993218         1.144616
 C         1.664023         1.864986        -0.017902
 O         1.904463         2.402320        -1.312742
 C         1.157111         0.567615         0.419474
 C         0.675664        -0.683440        -0.160881
 H        -1.925369         1.765666         0.405133
 H        -1.248015         3.361750         0.052706
 H        -1.219952         2.320326        -1.043599
 H         1.607061         0.297512         2.695676
 H         2.430627         2.994249         1.418546
 H         3.549780         1.568270         0.872961
 H         2.109521         3.332637        -1.233665
 H         0.105321        -1.192410         0.582551
 H        -0.080232        -0.443315        -0.919149
 H         1.579456        -1.380960        -0.447789
