19
Iteration:  4520
 C        -1.097548         2.390725         0.110688
 C         0.145621         1.785868         0.627055
 O         0.389302         1.881887         2.140568
 C         1.578518         1.046587         1.851585
 C         2.538284         1.992990         1.193798
 C         1.636150         1.996294        -0.016226
 O         1.882793         2.171828        -1.348064
 C         1.060704         0.581667         0.429763
 C         0.813106        -0.706888        -0.362927
 H        -1.951556         1.907115         0.577128
 H        -1.102092         3.517175         0.208699
 H        -0.933050         2.162505        -0.983767
 H         1.981051         0.607784         2.832832
 H         2.825096         2.909213         1.779831
 H         3.396946         1.353994         0.933579
 H         2.200646         3.111541        -1.459045
 H        -0.098214        -1.216778         0.066334
 H         0.369673        -0.519073        -1.324368
 H         1.558844        -1.382113        -0.334888
