19
Iteration:  2153charge 0 multiplicity 1
 C        -1.072629         2.033843        -0.047268
 C         0.242900         1.839443         0.659144
 O         0.367019         2.041000         2.025310
 C         1.507828         1.203160         1.939244
 C         2.604487         1.865982         1.129625
 C         1.673938         1.866367        -0.013685
 O         1.809682         2.591739        -1.211951
 C         0.992494         0.536765         0.485794
 C         0.821196        -0.815313        -0.251072
 H        -1.893342         1.497699         0.442208
 H        -1.480680         2.992463        -0.200734
 H        -1.080793         1.540103        -1.119680
 H         1.870522         0.842629         2.981745
 H         2.812542         2.948446         1.560482
 H         3.554486         1.345986         0.913136
 H         2.472712         2.253007        -1.865151
 H        -0.080560        -1.449578         0.030985
 H         0.806804        -0.595784        -1.430107
 H         1.643338        -1.477457        -0.158421
