19
Iteration:  3928charge 0 multiplicity 1
 C        -1.194815         2.228970         0.006925
 C         0.224446         1.902126         0.664942
 O         0.339985         1.997495         2.099281
 C         1.582467         1.006890         1.900520
 C         2.594200         1.896500         1.268440
 C         1.668727         1.961445        -0.013087
 O         1.802315         2.332018        -1.395655
 C         1.075353         0.539987         0.446488
 C         0.842169        -0.690548        -0.315171
 H        -1.895660         1.520501         0.382432
 H        -1.503868         3.320850         0.303350
 H        -0.851425         2.073693        -1.038932
 H         1.823057         0.421888         2.791157
 H         2.999240         2.773604         1.875937
 H         3.448892         1.224116         0.959948
 H         2.587200         2.913194        -1.593113
 H         0.009902        -1.352857         0.067135
 H         0.459575        -0.513912        -1.335216
 H         1.828042        -1.425339        -0.198898
