19
Iteration:  1692charge 0 multiplicity 1
 C        -1.035197         2.413067        -0.107615
 C         0.177821         1.747601         0.545631
 O         0.299540         1.890501         2.112880
 C         1.571648         1.158696         1.866929
 C         2.575312         2.057691         1.203996
 C         1.682922         1.901927        -0.001840
 O         1.770769         2.358834        -1.254360
 C         1.077128         0.504485         0.446913
 C         0.862405        -0.916767        -0.170402
 H        -2.016943         2.127691         0.469690
 H        -0.961222         3.525210        -0.022652
 H        -1.068344         2.196730        -1.054799
 H         2.007727         0.655955         2.704429
 H         2.476653         3.098401         1.599532
 H         3.578204         1.961748         0.952171
 H         2.543066         2.174932        -1.854992
 H         0.221760        -1.446997         0.520452
 H         0.175824        -0.705908        -0.976468
 H         1.667106        -1.613541        -0.491637
