19
Iteration:  2038
 C        -1.065998         2.303140        -0.039825
 C         0.209717         1.812802         0.606148
 O         0.292369         2.089239         2.003669
 C         1.545063         1.052090         1.836437
 C         2.557562         1.913456         1.145107
 C         1.627436         1.813541        -0.039780
 O         1.791571         2.553171        -1.246335
 C         0.935588         0.488276         0.494670
 C         1.018342        -0.897334        -0.113077
 H        -1.758909         1.491142         0.117888
 H        -1.456046         3.233468         0.530423
 H        -1.002210         2.462293        -1.079506
 H         1.678762         0.531632         2.709423
 H         2.840364         2.858042         1.589154
 H         3.522750         1.374865         0.887744
 H         2.361592         2.076720        -1.905523
 H         0.408171        -1.598249         0.473892
 H         0.686220        -0.893739        -1.136746
 H         2.131642        -1.264563         0.001213
