19
Iteration:  2588
 C        -1.022501         2.092949        -0.125050
 C         0.175641         1.784704         0.660324
 O         0.344221         1.899475         2.089531
 C         1.548979         1.085595         1.856851
 C         2.596792         1.985292         1.161907
 C         1.607689         1.996199         0.014856
 O         1.773140         2.517687        -1.249334
 C         1.039460         0.621106         0.455493
 C         0.865641        -0.730170        -0.194138
 H        -1.932727         1.650757         0.264641
 H        -1.257263         3.144439        -0.231619
 H        -0.695972         1.667584        -1.138294
 H         1.848996         0.227316         2.591785
 H         2.798961         2.946577         1.761782
 H         3.542253         1.447580         0.890268
 H         2.422078         1.893609        -1.690302
 H         0.084329        -1.205658         0.389751
 H         0.572602        -0.580115        -1.244216
 H         1.689340        -1.512137        -0.012882
