19
Iteration:  2178
 C        -1.173373         2.100744        -0.002871
 C         0.203197         1.862258         0.601773
 O         0.391410         1.959260         1.976351
 C         1.508564         1.027545         1.824587
 C         2.614682         1.892438         1.246966
 C         1.606212         2.012056         0.011997
 O         1.850512         2.497145        -1.283321
 C         1.034620         0.633514         0.456473
 C         0.927179        -0.726253        -0.133550
 H        -1.992996         1.754517         0.550818
 H        -1.382217         3.192186        -0.126640
 H        -1.405455         1.705104        -1.040842
 H         1.557664         0.273092         2.517598
 H         2.929861         2.792261         1.684222
 H         3.498941         1.385136         0.859788
 H         2.095592         1.808478        -1.906561
 H         0.045686        -1.277838         0.167447
 H         0.996342        -0.834335        -1.149675
 H         1.831802        -1.343916         0.273899
