19
Iteration:  2681
 C        -1.032604         2.335663        -0.109203
 C         0.129385         1.799324         0.580202
 O         0.340874         1.921409         2.113400
 C         1.555696         1.095244         1.870183
 C         2.573149         1.949198         1.214596
 C         1.567676         1.953791         0.054957
 O         1.698064         2.379130        -1.287091
 C         0.986737         0.594585         0.444650
 C         1.093547        -0.828382        -0.241845
 H        -1.878659         1.554725        -0.057572
 H        -1.408467         3.273963         0.421479
 H        -0.741736         2.477421        -1.170055
 H         1.551908         0.343081         2.744631
 H         2.791780         2.885737         1.650781
 H         3.464516         1.376878         0.951549
 H         2.621656         2.458773        -1.512544
 H         0.565052        -1.539507         0.461412
 H         0.543830        -0.799606        -1.268871
 H         2.070140        -1.259938        -0.220426
