19
Iteration:  2035charge 0 multiplicity 1
 C        -1.064522         2.296070        -0.026226
 C         0.206336         1.833587         0.605788
 O         0.305093         2.080175         2.021567
 C         1.540663         1.040673         1.835424
 C         2.556178         1.895699         1.135453
 C         1.632273         1.804828        -0.046237
 O         1.783443         2.542032        -1.253729
 C         0.935051         0.509885         0.483107
 C         1.034536        -0.866026        -0.099874
 H        -1.728971         1.469457         0.098581
 H        -1.463586         3.174187         0.430743
 H        -1.005906         2.439874        -1.207763
 H         1.501285         0.524152         2.837649
 H         2.826363         2.843966         1.527613
 H         3.452174         1.296480         0.972203
 H         2.330310         2.196139        -1.955983
 H         0.399974        -1.549523         0.467591
 H         0.768244        -0.863413        -1.108782
 H         2.106892        -1.281533        -0.013864
