19
Iteration:  4812
 C        -1.071476         2.571423         0.108767
 C         0.192848         1.810097         0.596303
 O         0.368708         1.737600         2.008571
 C         1.552590         1.023286         1.846841
 C         2.617166         2.059712         1.100642
 C         1.667497         1.812160         0.009076
 O         1.751360         2.301177        -1.289335
 C         0.991355         0.566877         0.445388
 C         0.914320        -0.775455        -0.224834
 H        -1.992755         2.185182         0.640863
 H        -1.009531         3.710855         0.356496
 H        -1.348799         2.336834        -0.989514
 H         1.818749         0.329177         2.686018
 H         2.650307         3.039577         1.574229
 H         3.608127         1.562342         1.287802
 H         2.033782         3.256912        -1.309665
 H         0.317089        -1.409901         0.332720
 H         0.406285        -0.787733        -1.178814
 H         1.919616        -1.306659        -0.518105
