19
Iteration:  1575charge 0 multiplicity 1
 C        -1.122334         2.203291         0.014217
 C         0.202523         1.839338         0.503232
 O         0.314387         1.967630         2.007308
 C         1.564486         1.140884         1.871550
 C         2.612617         1.986296         1.240093
 C         1.700718         1.906270         0.059089
 O         1.864257         2.319532        -1.253494
 C         1.010700         0.629412         0.451117
 C         0.805486        -0.715779        -0.242748
 H        -1.698074         1.387186         0.504830
 H        -1.560971         3.084754         0.389053
 H        -1.228773         2.027907        -1.161959
 H         1.698356         0.529151         2.708238
 H         2.895776         2.980356         1.623808
 H         3.570086         1.474987         0.895880
 H         2.541718         1.706265        -1.589997
 H         0.087784        -1.401309         0.264458
 H         0.388775        -0.608574        -1.227366
 H         1.852070        -1.272763        -0.244958
