19
Iteration:  2586
 C        -1.007289         2.081884        -0.139709
 C         0.177293         1.796125         0.685823
 O         0.334218         1.908689         2.105488
 C         1.549547         1.090324         1.846665
 C         2.599359         1.975758         1.166361
 C         1.595924         1.994315         0.021195
 O         1.765614         2.522079        -1.271191
 C         1.048957         0.624232         0.438771
 C         0.864055        -0.731793        -0.201477
 H        -1.951696         1.664076         0.274016
 H        -1.261493         3.089757        -0.207646
 H        -0.639648         1.646669        -1.112941
 H         1.821643         0.217965         2.646712
 H         2.839888         2.958427         1.795350
 H         3.531123         1.351230         0.859252
 H         2.424587         1.874174        -1.596911
 H         0.058417        -1.216312         0.341815
 H         0.594888        -0.522951        -1.168985
 H         1.740756        -1.541505        -0.005790
