19
Iteration:  2315
 C        -1.218391         2.111329        -0.001717
 C         0.179194         1.837790         0.560346
 O         0.357534         1.962551         2.063207
 C         1.529602         1.092515         1.830432
 C         2.592419         1.943391         1.182045
 C         1.587699         1.955527        -0.004534
 O         1.971054         2.530930        -1.225059
 C         0.999829         0.575930         0.403328
 C         0.910290        -0.808199        -0.173153
 H        -1.876061         1.197882         0.295021
 H        -1.502944         3.115191         0.325608
 H        -1.040093         2.197367        -1.157876
 H         1.910885         0.634283         2.886645
 H         2.880836         2.914823         1.727162
 H         3.500007         1.398273         0.902775
 H         1.975805         1.861111        -1.954112
 H         0.312947        -1.494939         0.476081
 H         0.374895        -0.693085        -1.237563
 H         1.936748        -1.144359        -0.251170
