19
Iteration:  4954
 C        -1.028325         2.304162         0.118749
 C         0.170629         1.781926         0.726968
 O         0.313517         1.757329         2.147530
 C         1.617970         1.039342         1.832440
 C         2.605872         2.060417         1.101508
 C         1.612372         2.021431         0.003190
 O         1.923239         2.255810        -1.290763
 C         1.067397         0.658790         0.286785
 C         0.694559        -0.732675        -0.294808
 H        -1.931490         1.868940         0.497286
 H        -1.025213         3.421344         0.211663
 H        -1.209354         2.097052        -0.960690
 H         1.886750         0.417979         2.670638
 H         2.755853         2.915029         1.739726
 H         3.567670         1.764495         0.642839
 H         1.944735         3.237709        -1.447157
 H        -0.159847        -1.143756         0.230520
 H         0.526176        -0.745859        -1.350802
 H         1.670846        -1.287407        -0.255851
