19
Iteration:  3100charge 0 multiplicity 1
 C        -1.140988         2.222859        -0.055377
 C         0.220263         1.886900         0.538871
 O         0.375615         1.940094         1.985599
 C         1.550443         1.100199         1.931948
 C         2.587148         1.921488         1.218255
 C         1.658382         1.948673         0.023752
 O         1.820050         2.525462        -1.262865
 C         0.983057         0.552507         0.479311
 C         0.906941        -0.872573        -0.182616
 H        -1.796967         1.376981         0.176650
 H        -1.479318         3.220108         0.295183
 H        -1.103021         2.256189        -1.118784
 H         1.721053         0.541288         2.803125
 H         2.811506         2.928633         1.584054
 H         3.345306         1.138422         1.024996
 H         2.416520         1.889438        -1.715413
 H         0.207651        -1.489865         0.344030
 H         0.507364        -0.659234        -1.218507
 H         1.753110        -1.389035        -0.206306
