19
Iteration:  2702charge 0 multiplicity 1
 C        -0.972378         2.250559        -0.105123
 C         0.232608         1.801188         0.613677
 O         0.317781         1.963270         1.974176
 C         1.473983         1.050661         1.991466
 C         2.560912         1.944606         1.157751
 C         1.618740         1.867837         0.018026
 O         1.637640         2.451265        -1.264173
 C         1.031050         0.544986         0.587023
 C         1.060810        -0.704886        -0.245502
 H        -1.887857         1.595165         0.058438
 H        -1.350068         3.174364         0.465753
 H        -0.761506         2.361207        -1.163359
 H         1.656925         0.327826         2.894661
 H         2.798164         2.823758         1.642180
 H         3.383370         1.290267         0.966611
 H         2.339091         2.044871        -1.839095
 H         0.472828        -1.665724        -0.048507
 H         0.660467        -0.194058        -1.288197
 H         2.019714        -1.074104        -0.270154
