19
Iteration:  2129charge 0 multiplicity 1
 C        -1.014660         2.083132        -0.166973
 C         0.211506         1.678135         0.593356
 O         0.392641         1.969239         2.028748
 C         1.558507         1.091509         1.891546
 C         2.584732         2.065954         1.139260
 C         1.606665         1.936879         0.062047
 O         1.783677         2.457633        -1.240814
 C         1.102470         0.520060         0.565068
 C         0.730744        -0.699959        -0.179122
 H        -1.900963         1.528142         0.298116
 H        -1.268911         3.137019        -0.020150
 H        -1.063202         1.849976        -1.224728
 H         1.969291         0.589146         2.834733
 H         2.808399         3.049718         1.731565
 H         3.523973         1.582167         0.754714
 H         2.735947         2.623486        -1.426969
 H        -0.132145        -1.269540         0.264897
 H         0.371769        -0.241195        -1.233586
 H         1.470756        -1.416943        -0.461076
