19
Iteration:  4454charge 0 multiplicity 1
 C        -1.050874         2.282157        -0.034415
 C         0.245494         1.792296         0.595545
 O         0.417733         1.979171         2.002495
 C         1.528882         0.972249         1.838971
 C         2.640026         1.848521         1.144095
 C         1.671777         1.903559         0.003055
 O         1.873083         2.484652        -1.282349
 C         0.968646         0.497603         0.519330
 C         0.733311        -0.716725        -0.146415
 H        -1.955803         1.794158         0.320917
 H        -1.217318         3.313714         0.384777
 H        -1.024235         2.276778        -1.146533
 H         1.868590         0.306489         2.703377
 H         2.912421         2.803672         1.636214
 H         3.557860         1.335769         0.810894
 H         1.154025         3.109914        -1.342232
 H         0.184205        -1.448030         0.535790
 H         0.056219        -0.379273        -0.965359
 H         1.670333        -1.123204        -0.522842
