19
Iteration:   247charge 0 multiplicity 1
 C        -1.118226         2.215184        -0.062002
 C         0.156326         1.846555         0.605722
 O         0.337246         2.115313         1.976735
 C         1.522457         1.035383         1.927704
 C         2.623752         1.865187         1.123590
 C         1.586498         1.965273        -0.003032
 O         1.838583         2.455640        -1.274836
 C         0.923160         0.465279         0.593368
 C         1.014949        -0.765071        -0.169587
 H        -1.892906         1.405214         0.294959
 H        -1.407622         3.332214         0.058498
 H        -1.130697         2.128745        -1.155228
 H         1.765996         0.374385         2.846780
 H         2.945656         2.724801         1.619427
 H         3.387110         1.218211         0.761459
 H         2.558206         2.079536        -1.788152
 H         0.609557        -1.793238         0.480001
 H         0.476475        -0.678774        -1.178364
 H         2.057541        -1.075143        -0.373892
