19
Iteration:  2837
 C        -1.036722         2.210920        -0.237497
 C         0.185485         1.848073         0.576028
 O         0.338628         1.903715         2.134646
 C         1.529987         1.051927         1.814476
 C         2.637111         1.930001         1.172926
 C         1.652542         1.922823         0.083562
 O         1.739229         2.627618        -1.187018
 C         1.024592         0.617726         0.417174
 C         0.860507        -0.885887        -0.104577
 H        -1.818007         1.469549         0.080646
 H        -1.486481         3.180130        -0.102405
 H        -0.599421         1.949116        -1.254682
 H         1.895323         0.416740         2.574710
 H         2.912752         2.862432         1.551103
 H         3.451319         1.261050         0.918528
 H         2.322029         2.096951        -1.805941
 H         0.269669        -1.419652         0.645779
 H         0.365754        -0.941533        -1.089544
 H         1.888608        -1.337770        -0.353843
