19
Iteration:  1079charge 0 multiplicity 1
 C        -0.899352         2.200843        -0.193367
 C         0.264012         1.852377         0.636394
 O         0.310354         1.904881         2.007141
 C         1.556434         1.068931         1.865266
 C         2.598261         1.983519         1.180741
 C         1.632845         1.945022         0.035891
 O         1.605458         2.491875        -1.248089
 C         1.010576         0.544225         0.518246
 C         0.839754        -0.799620        -0.121661
 H        -1.815920         1.798073         0.362788
 H        -1.007137         3.299652        -0.076522
 H        -0.717277         1.908203        -1.173009
 H         1.679520         0.479201         2.825682
 H         3.050012         2.886598         1.604216
 H         3.508909         1.334071         0.939697
 H         2.551234         2.382466        -1.543272
 H         0.041099        -1.507364         0.234753
 H         0.863084        -0.664619        -1.326409
 H         1.844409        -1.431272        -0.066525
