19
Iteration:  2087
 C        -0.985260         2.258929        -0.032593
 C         0.266628         1.841416         0.576965
 O         0.221399         1.694653         2.110955
 C         1.563291         1.058641         1.785917
 C         2.535906         2.143707         1.192041
 C         1.715014         1.999140        -0.063221
 O         1.800768         2.330277        -1.381121
 C         1.097623         0.618900         0.429406
 C         0.788461        -0.749486        -0.016756
 H        -1.918128         1.675467         0.135585
 H        -1.077154         3.221331         0.382031
 H        -0.751397         2.401114        -1.181645
 H         1.745919         0.292183         2.673883
 H         2.268975         3.191909         1.605487
 H         3.579007         1.965128         1.436552
 H         2.708263         2.420175        -1.672092
 H         0.310571        -1.413466         0.746703
 H         0.032840        -0.663281        -0.922570
 H         1.659470        -1.183249        -0.365904
