19
Iteration:  1444charge 0 multiplicity 1
 C        -1.143085         2.328970        -0.050621
 C         0.109710         1.769778         0.532351
 O         0.380432         1.955961         2.039049
 C         1.508461         0.991706         1.840170
 C         2.650277         1.960461         1.120027
 C         1.550114         1.938964        -0.019961
 O         1.906654         2.491743        -1.269234
 C         0.935077         0.608004         0.437988
 C         0.937485        -0.838815         0.002213
 H        -1.943569         1.586738         0.199509
 H        -1.227906         3.339772         0.229389
 H        -0.964503         2.305038        -1.194719
 H         1.726708         0.501849         2.733700
 H         3.047778         2.849375         1.636228
 H         3.450166         1.288110         0.752483
 H         2.667401         1.900548        -1.538989
 H         0.100134        -1.412231         0.464608
 H         0.793876        -0.891046        -1.071948
 H         1.870222        -1.360133         0.107451
