19
Iteration:  3170charge 0 multiplicity 1
 C        -1.003024         2.327668        -0.009614
 C         0.170819         1.734337         0.639458
 O         0.302617         1.871479         2.057625
 C         1.498239         1.107565         1.915327
 C         2.547762         2.130649         1.184908
 C         1.609672         1.874189         0.037261
 O         1.804712         2.212194        -1.274571
 C         1.070022         0.591562         0.470387
 C         0.911148        -0.663890        -0.330898
 H        -1.925829         1.974456         0.540128
 H        -0.774573         3.461210         0.056222
 H        -1.162474         2.050633        -1.152696
 H         2.041031         0.636429         2.827519
 H         2.481054         3.147470         1.537058
 H         3.428769         1.516305         1.078871
 H         2.646838         2.000679        -1.682135
 H         0.018568        -1.232088         0.019394
 H         0.842647        -0.328390        -1.333473
 H         1.719977        -1.427671        -0.315529
