19
Iteration:  3715
 C        -1.105508         2.258295        -0.049311
 C         0.184183         1.729209         0.580162
 O         0.331088         1.864669         2.072606
 C         1.604233         1.016550         1.849450
 C         2.635199         2.129373         1.284225
 C         1.644290         2.021084         0.019615
 O         1.859311         2.416011        -1.333247
 C         1.125050         0.600813         0.483985
 C         0.753015        -0.810473        -0.188971
 H        -2.062465         1.667489         0.168104
 H        -1.398624         3.213477         0.162231
 H        -0.978379         2.262327        -1.209348
 H         1.910807         0.231385         2.512638
 H         2.582506         3.034352         1.875174
 H         3.689813         1.827938         1.093918
 H         2.068710         1.645282        -1.926696
 H        -0.208008        -1.225783         0.107253
 H         0.384495        -0.463273        -1.177314
 H         1.581643        -1.647763        -0.198848
