19
Iteration:    91charge 0 multiplicity 1
 C        -1.208377         2.268300        -0.062607
 C         0.187867         1.866684         0.606482
 O         0.403503         2.016204         1.982407
 C         1.508178         1.083850         1.910019
 C         2.592155         1.848369         1.219644
 C         1.641112         1.864519        -0.012058
 O         1.741925         2.407503        -1.306988
 C         1.048857         0.540003         0.492494
 C         1.008717        -0.718492        -0.141495
 H        -2.049425         1.640335         0.297609
 H        -1.475064         3.336514         0.165722
 H        -0.933198         2.195546        -1.181263
 H         1.570229         0.487728         2.739326
 H         2.911460         2.732113         1.709964
 H         3.423528         1.205253         1.078870
 H         2.616755         2.253896        -1.726285
 H         0.362904        -1.565647         0.345469
 H         0.672939        -0.559938        -1.154268
 H         1.922454        -1.167338        -0.250191
