19
Iteration:   500charge 0 multiplicity 1
 C        -0.993907         2.339509        -0.183995
 C         0.189800         1.799233         0.584475
 O         0.385998         1.960954         2.076279
 C         1.543660         1.130910         1.929386
 C         2.571160         2.008306         1.132041
 C         1.560580         1.931120         0.032297
 O         1.691209         2.433911        -1.187044
 C         1.016102         0.468461         0.518200
 C         0.985548        -0.897829        -0.233128
 H        -1.883869         1.826614         0.109978
 H        -1.280564         3.403247        -0.001617
 H        -0.978262         2.209566        -1.291868
 H         1.684240         0.613166         2.834159
 H         2.702224         2.971491         1.720011
 H         3.495749         1.450476         0.900881
 H         2.439631         1.935913        -1.606563
 H         0.027889        -1.447945         0.103642
 H         0.867816        -0.707254        -1.352995
 H         1.905367        -1.554515        -0.005783
