19
Iteration:  1399
 C        -1.015655         2.282151        -0.017036
 C         0.269731         1.770862         0.592404
 O         0.258889         1.891305         1.956650
 C         1.546408         1.067916         1.904800
 C         2.596559         2.136227         1.219649
 C         1.672385         1.898479         0.016542
 O         1.783312         2.249919        -1.289877
 C         1.101005         0.580082         0.511010
 C         0.767468        -0.683896        -0.218574
 H        -1.795021         1.449112         0.317638
 H        -1.051128         3.230269         0.524359
 H        -0.920003         2.565258        -1.058690
 H         1.710728         0.431646         2.683147
 H         2.408239         3.198769         1.544032
 H         3.668594         2.049333         1.047856
 H         2.550754         1.767525        -1.697576
 H         0.009177        -1.232287         0.377272
 H         0.530074        -0.590624        -1.226247
 H         1.650404        -1.384612        -0.305699
