19
Iteration:  4061
 C        -0.995951         2.420963        -0.013820
 C         0.316553         1.911890         0.630057
 O         0.355102         1.873224         2.071103
 C         1.520704         0.976189         1.884016
 C         2.589731         1.885533         1.107406
 C         1.660526         1.844791        -0.042791
 O         1.682413         2.459972        -1.248682
 C         0.987043         0.549592         0.473717
 C         0.848467        -0.821821        -0.195546
 H        -1.896890         1.859534         0.149150
 H        -1.339745         3.479056        -0.002846
 H        -0.984637         2.392694        -1.183515
 H         1.729898         0.379128         2.726561
 H         2.866754         2.944144         1.405055
 H         3.567710         1.290154         1.001890
 H         2.574013         2.879324        -1.372689
 H         0.252069        -1.420075         0.485772
 H         0.349056        -0.641377        -1.139759
 H         1.847005        -1.333109        -0.359022
