19
Iteration:   379charge 0 multiplicity 1
 C        -1.138640         2.121058        -0.136963
 C         0.131963         1.835840         0.578024
 O         0.398242         2.017971         2.045201
 C         1.505190         1.063030         1.861730
 C         2.691424         1.962492         1.251408
 C         1.681605         1.975848         0.011948
 O         1.789624         2.404596        -1.254577
 C         0.987548         0.646326         0.455426
 C         0.876267        -0.783127        -0.152257
 H        -1.873316         1.381845         0.142311
 H        -1.450311         3.159193         0.149448
 H        -1.179012         2.066645        -1.202490
 H         1.831600         0.360295         2.559535
 H         3.131623         2.744098         1.806640
 H         3.381447         1.162165         1.125553
 H         2.635561         2.266678        -1.747632
 H         0.162600        -1.357025         0.525668
 H         0.403037        -0.976832        -1.173359
 H         1.819956        -1.043608        -0.283469
