19
Iteration:  4125charge 0 multiplicity 1
 C        -1.158705         2.386008         0.127680
 C         0.143750         1.873789         0.650766
 O         0.335574         1.862559         2.099231
 C         1.612973         1.039559         1.833031
 C         2.644648         2.013988         1.198087
 C         1.715713         1.865348        -0.021722
 O         1.968072         2.197868        -1.334423
 C         0.920310         0.645385         0.444470
 C         0.773273        -0.688556        -0.349986
 H        -1.896107         1.704532         0.391712
 H        -1.160899         3.380297         0.732194
 H        -0.959373         2.271366        -0.984512
 H         1.851816         0.393756         2.627536
 H         2.706710         2.995827         1.653269
 H         3.628477         1.498934         1.315955
 H         1.370236         2.734465        -1.855114
 H         0.127308        -1.422428         0.086788
 H         0.692115        -0.538800        -1.411647
 H         1.658818        -1.248402        -0.399212
