19
Iteration:   692
 C        -1.171711         2.302059        -0.010696
 C         0.176953         1.716127         0.485206
 O         0.322436         1.887600         2.002836
 C         1.506700         1.076505         1.880596
 C         2.597939         2.022320         1.210274
 C         1.649902         2.002423        -0.025948
 O         1.872863         2.553422        -1.355834
 C         1.087859         0.505254         0.479272
 C         0.919900        -0.918927        -0.063693
 H        -2.048202         1.867466         0.508248
 H        -1.239550         3.400933         0.239690
 H        -1.436244         2.211088        -1.085830
 H         1.861842         0.686574         2.958654
 H         2.668240         2.930680         1.762272
 H         3.530575         1.481293         1.107164
 H         2.569803         2.017906        -1.721777
 H        -0.040095        -1.494921         0.289569
 H         0.780382        -0.744366        -1.098464
 H         1.714922        -1.507368         0.201306
