19
Iteration:  1653charge 0 multiplicity 1
 C        -0.973122         2.350105        -0.105386
 C         0.221513         1.788798         0.618022
 O         0.278066         1.853291         2.088333
 C         1.570507         0.978003         1.831525
 C         2.523022         2.067644         1.225913
 C         1.653933         1.919649        -0.027741
 O         1.703782         2.419112        -1.388521
 C         1.127187         0.582670         0.460889
 C         0.855237        -0.792588        -0.043214
 H        -1.954823         1.966544        -0.052760
 H        -0.838204         3.318095         0.344284
 H        -0.783806         2.610081        -1.279545
 H         1.947770         0.461636         2.713877
 H         2.642486         3.054355         1.674626
 H         3.477288         1.432946         1.115872
 H         2.307340         1.797651        -1.781481
 H         0.002545        -1.172597         0.571863
 H         0.639024        -0.801171        -1.138007
 H         1.799087        -1.388108         0.094276
