19
Iteration:  3987charge 0 multiplicity 1
 C        -1.050923         2.265929         0.069557
 C         0.169318         1.743407         0.594509
 O         0.403192         1.848375         2.064310
 C         1.491641         1.008883         1.870903
 C         2.588236         2.014404         1.216341
 C         1.694632         1.994054        -0.061200
 O         1.998084         2.461384        -1.312497
 C         1.096035         0.604316         0.435276
 C         0.633474        -0.755827        -0.220111
 H        -1.990679         1.810830         0.545457
 H        -1.216595         3.291179         0.086293
 H        -1.347650         1.900172        -0.950847
 H         1.839815         0.511403         2.775380
 H         2.740985         2.991484         1.694504
 H         3.559141         1.531216         0.975400
 H         1.193254         2.226240        -1.833894
 H         0.034826        -1.366509         0.521694
 H         0.362138        -0.651948        -1.311065
 H         1.646266        -1.329833        -0.413165
