19
Iteration:  4240charge 0 multiplicity 1
 C        -1.004011         2.438534        -0.050343
 C         0.225837         1.780001         0.576235
 O         0.378923         1.816313         2.143180
 C         1.584219         1.085950         1.873464
 C         2.570123         1.934447         1.188416
 C         1.685922         1.935036        -0.064587
 O         1.793893         2.442695        -1.316184
 C         1.047294         0.514439         0.368696
 C         0.690829        -0.814515        -0.128853
 H        -2.041659         1.994773         0.342512
 H        -1.258693         3.494165         0.079441
 H        -0.937428         2.094824        -1.085648
 H         2.138502         0.428292         2.599799
 H         2.791363         2.845577         1.875693
 H         3.499008         1.355104         1.005069
 H         2.327374         3.230087        -1.375335
 H         0.073829        -1.386933         0.512155
 H         0.184103        -0.842333        -1.064083
 H         1.552819        -1.478554        -0.298195
