19
Iteration:  3717charge 0 multiplicity 1
 C        -1.082957         2.242121        -0.050219
 C         0.186581         1.734088         0.574151
 O         0.328188         1.874394         2.062417
 C         1.616086         1.012866         1.865407
 C         2.634791         2.126229         1.304902
 C         1.626921         2.021762         0.011682
 O         1.850247         2.407465        -1.334210
 C         1.149236         0.608470         0.472818
 C         0.736756        -0.813409        -0.204183
 H        -2.043198         1.730438         0.188569
 H        -1.464956         3.217351         0.211720
 H        -0.995269         2.192381        -1.151540
 H         1.869627         0.214478         2.597521
 H         2.612845         3.096469         1.902184
 H         3.675154         1.838284         1.098025
 H         2.045786         1.657931        -1.909939
 H        -0.183932        -1.192891         0.082203
 H         0.402438        -0.474856        -1.154779
 H         1.520775        -1.601267        -0.225074
