19
Iteration:  2256charge 0 multiplicity 1
 C        -0.952192         2.431679        -0.067257
 C         0.222348         1.751740         0.616549
 O         0.306662         1.915989         2.026949
 C         1.496250         1.054796         1.946016
 C         2.561481         2.116322         1.202158
 C         1.596697         1.880254         0.045659
 O         1.586564         2.309111        -1.287605
 C         1.113181         0.459582         0.478022
 C         1.036412        -0.803128        -0.253894
 H        -1.905925         1.835947        -0.143901
 H        -1.246759         3.445381         0.361125
 H        -0.632247         2.567192        -1.065865
 H         1.718149         0.533561         2.878995
 H         2.558405         3.084272         1.614591
 H         3.578398         1.734864         1.126146
 H         2.437143         2.241778        -1.712401
 H         0.602288        -1.638943         0.313221
 H         0.378951        -0.595772        -0.998711
 H         2.014280        -1.141829        -0.824045
