19
Iteration:  3305charge 0 multiplicity 1
 C        -0.974967         2.235337        -0.060408
 C         0.307793         1.799517         0.548946
 O         0.324778         1.759937         2.087994
 C         1.533188         1.152591         1.981111
 C         2.553534         2.105606         1.231789
 C         1.655774         1.944681        -0.020788
 O         1.790471         2.378331        -1.359233
 C         1.131032         0.565282         0.466269
 C         0.638348        -0.758896        -0.230187
 H        -1.777761         1.419625         0.248820
 H        -1.247858         3.257088         0.277842
 H        -0.800232         2.374740        -1.121340
 H         1.864907         0.710590         2.893876
 H         2.636726         3.072042         1.764164
 H         3.550326         1.717682         1.175612
 H         2.658112         2.312731        -1.834258
 H        -0.077517        -1.178210         0.400918
 H         0.474051        -0.601695        -1.275575
 H         1.432102        -1.461464        -0.210876
