19
Iteration:  1756
 C        -1.240021         2.142815         0.003409
 C         0.135437         1.861010         0.588662
 O         0.426113         2.075473         1.981194
 C         1.511348         1.147475         1.954880
 C         2.636568         1.855947         1.193682
 C         1.714791         1.872465         0.014177
 O         1.856798         2.375395        -1.243987
 C         0.944988         0.610305         0.476907
 C         0.956090        -0.714270        -0.253444
 H        -2.177864         1.635557         0.333152
 H        -1.454837         3.240865        -0.155158
 H        -1.009533         1.813051        -0.990560
 H         1.565034         0.593535         2.875885
 H         3.019998         2.728473         1.721287
 H         3.398230         1.181391         0.913919
 H         2.369713         1.741809        -1.836913
 H         0.282819        -1.398977         0.283770
 H         0.427715        -0.465587        -1.278831
 H         1.840690        -1.211095        -0.414778
