19
Iteration:  1704
 C        -1.036573         2.358505        -0.081862
 C         0.174817         1.769179         0.611636
 O         0.339886         1.909841         2.052146
 C         1.552001         1.088286         1.912841
 C         2.572464         2.065628         1.159352
 C         1.606701         1.862940        -0.015335
 O         1.799807         2.385436        -1.337492
 C         1.063722         0.544444         0.474524
 C         0.847531        -0.814358        -0.142761
 H        -2.005206         2.017235         0.478221
 H        -0.962044         3.442705        -0.115752
 H        -1.147095         1.992984        -1.053545
 H         1.696789         0.476925         2.770284
 H         2.699718         3.025561         1.710569
 H         3.489501         1.468962         1.112001
 H         2.767956         2.218776        -1.395680
 H         0.407235        -1.534854         0.541251
 H         0.275025        -0.745490        -1.022664
 H         1.866085        -1.212254        -0.501402
