19
Iteration:  1192charge 0 multiplicity 1
 C        -1.087716         2.157164        -0.125976
 C         0.242571         1.880736         0.654650
 O         0.393169         1.984291         2.083166
 C         1.509780         1.081358         1.892427
 C         2.513101         1.910602         1.135709
 C         1.632292         1.894708         0.037917
 O         1.800866         2.350654        -1.258599
 C         0.969867         0.578413         0.495624
 C         0.942352        -0.636293        -0.203722
 H        -1.688492         1.275475        -0.061930
 H        -1.717111         3.010597         0.093486
 H        -0.906545         2.368208        -1.131101
 H         1.813478         0.638423         2.784267
 H         2.801705         2.916921         1.538541
 H         3.378375         1.391939         0.836061
 H         2.568523         1.880140        -1.582783
 H         0.367176        -1.343319         0.438754
 H         0.508397        -0.413172        -1.247542
 H         1.795948        -1.109760        -0.510653
