19
Iteration:  2309charge 0 multiplicity 1
 C        -1.176631         2.109830        -0.056576
 C         0.158882         1.860067         0.635586
 O         0.347912         1.959661         2.043509
 C         1.583921         1.052558         1.869612
 C         2.588530         1.951103         1.179725
 C         1.558056         1.987787        -0.024139
 O         1.942310         2.498841        -1.227203
 C         0.990327         0.603567         0.400804
 C         0.929827        -0.780950        -0.164071
 H        -1.865016         1.364510         0.165429
 H        -1.571171         3.057095         0.342973
 H        -1.058546         2.203844        -1.106944
 H         1.715005         0.519074         2.728455
 H         3.010376         2.729601         1.790910
 H         3.390067         1.277992         0.779464
 H         1.970404         1.906646        -1.972217
 H         0.444604        -1.466636         0.527676
 H         0.461764        -0.779894        -1.110465
 H         1.961687        -1.172244        -0.312631
