19
Iteration:  2391
 C        -0.993961         2.118966        -0.157809
 C         0.206508         1.809175         0.712310
 O         0.326331         1.796689         2.140689
 C         1.606383         1.097465         1.859365
 C         2.572045         2.020062         1.162894
 C         1.637975         1.936047        -0.010220
 O         1.738529         2.397589        -1.306385
 C         1.033898         0.665744         0.474478
 C         0.829827        -0.629670        -0.201571
 H        -1.929205         1.531151         0.211898
 H        -1.209533         3.180985        -0.334145
 H        -0.757625         1.696447        -1.234772
 H         1.856070         0.265108         2.732843
 H         2.509895         2.989727         1.714009
 H         3.557787         1.602954         1.207315
 H         2.646315         2.644417        -1.546688
 H        -0.118104        -1.062771         0.156735
 H         0.659972        -0.561055        -1.334243
 H         1.725503        -1.239159        -0.008162
