19
Iteration:  1823charge 0 multiplicity 1
 C        -0.991971         2.391064        -0.093805
 C         0.220857         1.783383         0.594611
 O         0.315208         1.755641         2.058088
 C         1.529971         1.016905         1.848687
 C         2.555755         2.188844         1.132851
 C         1.611030         1.977681        -0.004556
 O         1.790775         2.292611        -1.356615
 C         1.136582         0.567487         0.503039
 C         0.781924        -0.757967        -0.046245
 H        -1.903959         1.671601        -0.111661
 H        -1.204425         3.351578         0.466302
 H        -0.729429         2.560428        -1.044791
 H         1.990121         0.391086         2.580319
 H         2.428239         2.965641         1.871678
 H         3.533543         1.912158         1.020057
 H         2.703769         2.059231        -1.521849
 H        -0.114696        -1.202708         0.422693
 H         0.614278        -0.640359        -1.199051
 H         1.549113        -1.485670         0.055931
