19
Iteration:  3593
 C        -1.079801         2.312749        -0.101823
 C         0.156345         1.751213         0.622515
 O         0.349884         1.762051         2.118718
 C         1.627750         1.075379         1.848563
 C         2.519812         2.132056         1.183054
 C         1.617843         1.930797         0.019658
 O         1.836978         2.309457        -1.231596
 C         1.121812         0.613605         0.464642
 C         0.828402        -0.649936        -0.202802
 H        -2.113582         1.971913         0.210473
 H        -0.957915         3.371887        -0.174378
 H        -1.013638         2.100704        -1.243485
 H         1.854950         0.304934         2.561087
 H         2.591739         3.104483         1.622664
 H         3.460364         1.669013         0.816238
 H         2.179384         1.501895        -1.631291
 H         0.077918        -1.196678         0.269492
 H         0.435226        -0.297755        -1.185958
 H         1.687741        -1.298318        -0.451251
