19
Iteration:  4959
 C        -1.033378         2.356009         0.136278
 C         0.172111         1.814020         0.682293
 O         0.320663         1.717079         2.154502
 C         1.611406         1.043911         1.796394
 C         2.674438         2.111451         1.108456
 C         1.590561         2.006186        -0.004165
 O         1.910608         2.253125        -1.268489
 C         0.999272         0.642120         0.344980
 C         0.729712        -0.745142        -0.310054
 H        -1.993479         1.782767         0.441452
 H        -1.028344         3.449769         0.048024
 H        -1.145592         2.097044        -0.924485
 H         1.821141         0.334101         2.628721
 H         2.782972         3.100571         1.670144
 H         3.639522         1.663910         0.804465
 H         1.958454         3.179702        -1.494476
 H        -0.078143        -1.313946         0.259028
 H         0.477036        -0.851914        -1.408350
 H         1.636174        -1.348920        -0.264521
