19
Iteration:   831charge 0 multiplicity 1
 C        -1.162122         2.212444        -0.015790
 C         0.200470         1.822837         0.581896
 O         0.278919         1.835886         2.035369
 C         1.565228         1.063868         1.840823
 C         2.594482         2.094057         1.180511
 C         1.631652         1.897191        -0.040507
 O         1.930472         2.385494        -1.315716
 C         1.006311         0.601191         0.492826
 C         0.902196        -0.674824        -0.164853
 H        -1.992898         1.633629         0.492625
 H        -1.286770         3.225925         0.295153
 H        -1.174543         1.895494        -1.018153
 H         1.761144         0.454247         2.825135
 H         2.466779         3.140325         1.647504
 H         3.566120         1.597916         1.116459
 H         2.775168         1.874608        -1.560511
 H         0.306731        -1.431951         0.369198
 H         0.087050        -0.521927        -0.866209
 H         1.978653        -1.238466        -0.339064
