19
Iteration:  1401charge 0 multiplicity 1
 C        -1.002450         2.270661        -0.000610
 C         0.278403         1.779723         0.587316
 O         0.269411         1.882972         1.957499
 C         1.521467         1.090426         1.894516
 C         2.593192         2.139195         1.208089
 C         1.673673         1.883522         0.015756
 O         1.787897         2.262364        -1.286735
 C         1.081943         0.569894         0.493077
 C         0.790979        -0.687488        -0.208048
 H        -1.752247         1.534762         0.340764
 H        -1.052809         3.156929         0.569057
 H        -0.996409         2.607365        -1.113420
 H         1.608987         0.403870         2.759717
 H         2.405218         3.135046         1.584374
 H         3.673935         2.043259         1.049296
 H         2.543372         1.760672        -1.717997
 H         0.016863        -1.192092         0.436527
 H         0.490303        -0.614160        -1.318337
 H         1.593063        -1.346361        -0.224402
