19
Iteration:  3700
 C        -1.088025         2.281709        -0.074370
 C         0.169341         1.825855         0.635845
 O         0.370478         1.773162         2.094515
 C         1.579454         1.065990         1.815542
 C         2.514635         2.067192         1.156155
 C         1.654610         1.904148        -0.032286
 O         1.898002         2.465010        -1.273271
 C         1.003719         0.579139         0.417452
 C         0.824333        -0.744090        -0.129832
 H        -1.952949         1.652127         0.128051
 H        -1.383744         3.297955         0.465981
 H        -0.897215         2.330251        -1.143310
 H         1.857422         0.572753         2.765671
 H         2.631454         3.064471         1.588833
 H         3.494457         1.597486         1.043770
 H         2.296526         1.737247        -1.762580
 H         0.063917        -1.328231         0.532694
 H         0.617645        -0.833918        -1.240139
 H         1.777038        -1.288121         0.000148
