19
Iteration:  3864
 C        -1.018925         2.506120         0.003613
 C         0.163128         1.790151         0.581975
 O         0.379398         1.777748         2.155047
 C         1.543371         1.045828         1.848255
 C         2.504731         2.140518         1.182800
 C         1.602730         1.848799        -0.035788
 O         1.872314         2.386842        -1.301513
 C         1.005396         0.481400         0.440061
 C         0.928977        -0.844926        -0.211832
 H        -2.044103         2.192853        -0.043512
 H        -1.073746         3.581109         0.364219
 H        -0.943928         2.495889        -1.134994
 H         1.876569         0.428446         2.666997
 H         2.612091         3.146895         1.670787
 H         3.481131         1.592954         0.998352
 H         1.077875         2.290491        -1.898869
 H         0.411667        -1.534605         0.507757
 H         0.534383        -0.830672        -1.237406
 H         1.988662        -1.249725        -0.271969
