19
Iteration:  3159
 C        -1.070553         2.337527        -0.072506
 C         0.186913         1.804947         0.637439
 O         0.228771         1.862740         2.090951
 C         1.647830         1.115891         1.942991
 C         2.586476         2.105754         1.162596
 C         1.624172         1.931690         0.070629
 O         1.761933         2.193714        -1.256474
 C         1.098229         0.540496         0.507283
 C         0.899821        -0.673941        -0.370193
 H        -2.052412         2.031475         0.371047
 H        -1.176410         3.490983        -0.112035
 H        -0.978272         1.962414        -1.186496
 H         1.779989         0.432550         2.869795
 H         2.925396         3.092638         1.474168
 H         3.577588         1.670849         1.004899
 H         2.609989         1.783687        -1.453237
 H        -0.081799        -1.171453        -0.170046
 H         0.801594        -0.390018        -1.396135
 H         1.756678        -1.390383        -0.302191
