19
Iteration:  4439
 C        -0.999164         2.335378        -0.039370
 C         0.218597         1.830606         0.613630
 O         0.371832         1.885703         2.126054
 C         1.624582         1.067712         1.835617
 C         2.617288         1.958059         1.112000
 C         1.631375         1.883475        -0.058282
 O         1.898525         2.457278        -1.243159
 C         1.028323         0.585584         0.447818
 C         0.648364        -0.884527        -0.168403
 H        -1.868738         1.748803         0.380630
 H        -1.059562         3.412475         0.155293
 H        -1.145328         2.286950        -1.169936
 H         1.708099         0.457699         2.671680
 H         2.862909         2.922433         1.592296
 H         3.505760         1.249498         1.089009
 H         1.409381         3.289055        -1.424679
 H         0.128342        -1.605625         0.357381
 H         0.147237        -0.815166        -1.132881
 H         1.460420        -1.381013        -0.576162
