19
Iteration:  3133
 C        -1.036210         2.188123        -0.109947
 C         0.199372         1.819290         0.632351
 O         0.397320         1.962432         2.103820
 C         1.532697         1.037124         1.934738
 C         2.535019         1.944653         1.262824
 C         1.643616         1.970508         0.003219
 O         1.723320         2.307697        -1.312464
 C         1.002353         0.626662         0.472225
 C         0.949859        -0.623569        -0.272313
 H        -1.949231         1.677903         0.169249
 H        -1.284869         3.263055        -0.041378
 H        -0.792931         1.992113        -1.130991
 H         1.723148         0.380558         2.775670
 H         2.894934         2.921722         1.620990
 H         3.507104         1.395680         1.239586
 H         2.167808         1.584520        -1.756285
 H         0.018050        -1.120151        -0.115444
 H         0.805645        -0.380429        -1.364923
 H         1.752095        -1.215839        -0.146721
