19
Iteration:  3905charge 0 multiplicity 1
 C        -1.043541         2.293135        -0.039037
 C         0.186269         1.835866         0.557371
 O         0.397583         1.858618         2.021655
 C         1.522300         1.063731         1.869802
 C         2.658323         1.964371         1.188376
 C         1.615586         1.926615         0.060490
 O         1.691513         2.343269        -1.225800
 C         1.002562         0.584484         0.475287
 C         0.890199        -0.640566        -0.254952
 H        -1.843031         1.675091         0.313251
 H        -1.179993         3.344592         0.462877
 H        -0.876048         2.318404        -1.101175
 H         1.793213         0.312612         2.641349
 H         2.888307         3.002357         1.579365
 H         3.587145         1.417515         0.985801
 H         2.445054         1.871113        -1.614451
 H         0.085223        -1.309396         0.115918
 H         0.505245        -0.489067        -1.274817
 H         1.877874        -1.333558        -0.146188
