19
Iteration:  4239
 C        -1.000962         2.427680        -0.052015
 C         0.210997         1.779839         0.572335
 O         0.379579         1.820194         2.144921
 C         1.579586         1.084894         1.868347
 C         2.579927         1.936414         1.182175
 C         1.698905         1.928493        -0.050528
 O         1.787852         2.443065        -1.311349
 C         1.050076         0.516497         0.360338
 C         0.692467        -0.815371        -0.129708
 H        -2.047334         1.990733         0.359857
 H        -1.264969         3.523068         0.065497
 H        -0.954480         2.119846        -1.110653
 H         2.116747         0.405992         2.621215
 H         2.804095         2.846459         1.874826
 H         3.492844         1.339083         0.987024
 H         2.332656         3.246081        -1.377797
 H         0.064884        -1.336788         0.526192
 H         0.173534        -0.807510        -1.032367
 H         1.568250        -1.475381        -0.282790
