19
Iteration:  4382
 C        -1.036669         2.379213         0.029587
 C         0.209154         1.916541         0.638404
 O         0.367519         1.801459         2.083419
 C         1.561237         1.013502         1.916454
 C         2.643613         2.006953         1.182282
 C         1.703365         1.941598        -0.031306
 O         1.811107         2.260562        -1.339315
 C         1.030107         0.611043         0.375526
 C         0.727124        -0.800840        -0.255031
 H        -1.997271         2.068510         0.542084
 H        -1.301925         3.420025         0.225445
 H        -1.084576         2.099528        -0.994975
 H         1.690333         0.440532         2.825059
 H         2.832480         3.012919         1.629088
 H         3.605312         1.517712         1.058157
 H         2.005893         3.191579        -1.463130
 H        -0.053868        -1.139281         0.333417
 H         0.443009        -0.654561        -1.260049
 H         1.648162        -1.408253        -0.094779
