19
Iteration:  1308charge 0 multiplicity 1
 C        -1.142117         2.279271         0.030396
 C         0.114645         1.798676         0.559198
 O         0.313777         1.981700         1.978316
 C         1.503138         1.112279         1.813673
 C         2.631891         1.911484         1.242376
 C         1.691467         1.864997        -0.046152
 O         1.844736         2.523747        -1.295817
 C         1.041902         0.565581         0.441377
 C         0.912964        -0.873599        -0.082007
 H        -2.020044         1.884334         0.677480
 H        -1.150557         3.397645        -0.163178
 H        -1.311806         1.945651        -1.032121
 H         1.740176         0.382573         2.630225
 H         2.836537         2.901897         1.698969
 H         3.585168         1.333858         1.129800
 H         2.633490         2.227654        -1.755185
 H         0.272412        -1.406515         0.593801
 H         0.594598        -0.855123        -1.074368
 H         1.928275        -1.424425        -0.153925
