19
Iteration:  3001
 C        -0.954434         2.227575        -0.190136
 C         0.241389         1.791840         0.638012
 O         0.326639         1.898156         2.071163
 C         1.547794         1.105110         1.917222
 C         2.581816         2.036392         1.151155
 C         1.623875         1.903953         0.038652
 O         1.737422         2.498238        -1.195867
 C         1.050730         0.508033         0.515539
 C         0.813961        -0.793678        -0.253539
 H        -1.806183         1.712333         0.357274
 H        -1.245215         3.323486        -0.065299
 H        -0.915766         1.979542        -1.231451
 H         1.804474         0.555553         2.763530
 H         2.807977         3.058741         1.522710
 H         3.512264         1.443046         0.920519
 H         2.375066         2.023768        -1.732463
 H         0.090916        -1.362658         0.347279
 H         0.439199        -0.639858        -1.367741
 H         1.742607        -1.411665        -0.331639
