19
Iteration:  4683
 C        -1.010228         2.251518         0.068882
 C         0.202738         1.789018         0.664324
 O         0.351276         1.781980         2.141340
 C         1.648728         1.073337         1.819611
 C         2.577607         2.082630         1.226163
 C         1.618693         2.023630         0.037368
 O         1.962703         2.302048        -1.404979
 C         1.042221         0.596534         0.392293
 C         0.595874        -0.742765        -0.323931
 H        -1.845094         1.727723         0.462623
 H        -1.184637         3.304349         0.127649
 H        -1.086303         2.248552        -1.028195
 H         1.941999         0.379591         2.660511
 H         2.544096         3.043824         1.713354
 H         3.466954         1.533164         0.983025
 H         2.258950         3.221657        -1.444273
 H        -0.014416        -1.213941         0.502829
 H        -0.027979        -0.779447        -1.219303
 H         1.519438        -1.336294        -0.178115
