19
Iteration:  3385charge 0 multiplicity 1
 C        -1.115812         2.228913         0.011062
 C         0.186138         1.846103         0.583750
 O         0.317681         1.985959         1.974834
 C         1.460981         1.072978         1.920719
 C         2.627796         1.837580         1.168210
 C         1.684124         1.899409        -0.004644
 O         1.798011         2.412646        -1.260260
 C         0.999479         0.599510         0.463548
 C         0.993278        -0.668516        -0.222961
 H        -1.766887         1.705779         0.712464
 H        -1.180379         3.288213         0.312483
 H        -1.514208         1.901716        -0.965511
 H         1.652287         0.565859         2.947624
 H         2.932584         2.817166         1.502802
 H         3.315889         0.985878         1.079047
 H         2.410058         1.839750        -1.797651
 H         0.315804        -1.371583         0.184649
 H         0.554748        -0.481181        -1.250390
 H         2.089827        -1.042373        -0.216326
