19
Iteration:  2421charge 0 multiplicity 1
 C        -0.978258         2.232715        -0.171270
 C         0.160260         1.746742         0.608203
 O         0.351327         2.008823         1.981228
 C         1.601867         1.135909         1.941223
 C         2.643599         1.906379         1.196035
 C         1.590507         1.943503         0.042119
 O         1.600219         2.491819        -1.192316
 C         1.051166         0.483563         0.556030
 C         0.945949        -0.830060        -0.284127
 H        -1.921773         1.680498         0.119590
 H        -1.290582         3.231368         0.089340
 H        -0.868325         2.150362        -1.203740
 H         1.710689         0.580544         2.973371
 H         2.775696         2.856768         1.755327
 H         3.572698         1.311988         1.042522
 H         2.469342         2.807601        -1.537151
 H         0.298995        -1.581917         0.172632
 H         0.592573        -0.651359        -1.238714
 H         1.941733        -1.446118        -0.468966
