19
Iteration:  4612
 C        -1.024795         2.335105        -0.025393
 C         0.242135         1.825833         0.636411
 O         0.428008         1.962339         2.125491
 C         1.500084         0.928374         1.918649
 C         2.577070         1.827439         1.133671
 C         1.623944         1.856267        -0.062708
 O         1.838120         2.504399        -1.330090
 C         0.973865         0.544219         0.430507
 C         0.866149        -0.717392        -0.175554
 H        -1.971430         1.804265         0.207413
 H        -1.225923         3.390276         0.068173
 H        -0.988772         2.404749        -1.081523
 H         1.841798         0.372343         2.747744
 H         2.893000         2.686518         1.692531
 H         3.331170         1.130108         0.767266
 H         1.206666         3.205533        -1.510031
 H         0.180023        -1.339889         0.372516
 H         0.240214        -0.691160        -1.071043
 H         1.838937        -1.259538        -0.203053
