19
Iteration:  2667charge 0 multiplicity 1
 C        -1.202543         2.399296        -0.125948
 C         0.129339         1.850612         0.671450
 O         0.335331         1.815916         2.081730
 C         1.517252         0.998443         1.866991
 C         2.588874         2.063481         1.178949
 C         1.619245         1.928589         0.002069
 O         1.780910         2.375243        -1.293135
 C         1.076905         0.555001         0.406211
 C         1.032613        -0.832915        -0.124444
 H        -2.029474         1.743331        -0.105356
 H        -1.455112         3.462559         0.213928
 H        -0.962111         2.609267        -1.128189
 H         1.882348         0.425516         2.636222
 H         2.850064         2.974372         1.674475
 H         3.514044         1.582586         0.974644
 H         2.746983         2.544334        -1.381897
 H         0.544175        -1.568962         0.545081
 H         0.583571        -0.907906        -1.208765
 H         2.011885        -1.109068        -0.356793
