19
Iteration:    27charge 0 multiplicity 1
 C        -1.001656         2.402797        -0.042298
 C         0.262880         1.758314         0.597874
 O         0.265490         1.783182         2.076277
 C         1.550171         1.102810         1.896685
 C         2.509695         2.194501         1.277064
 C         1.638384         1.931241        -0.001582
 O         1.790407         2.209026        -1.361288
 C         1.184012         0.622273         0.456353
 C         0.851269        -0.769120        -0.219648
 H        -2.041376         2.095834         0.396820
 H        -1.003150         3.522732         0.285476
 H        -1.097930         2.250093        -1.208769
 H         1.845524         0.379012         2.640904
 H         2.344564         3.193925         1.667072
 H         3.560525         1.982603         1.126543
 H         2.078018         1.427665        -1.801701
 H         0.161395        -1.465660         0.519866
 H         0.230626        -0.645198        -1.122705
 H         1.788746        -1.167126        -0.534315
