19
Iteration:  4768
 C        -1.129280         2.422645         0.063233
 C         0.201162         1.806915         0.640438
 O         0.445688         1.908037         2.069850
 C         1.524700         0.946139         1.857147
 C         2.609304         1.837969         1.157359
 C         1.629410         1.971071         0.009380
 O         1.809630         2.289926        -1.359178
 C         0.889373         0.529460         0.513544
 C         0.934331        -0.625506        -0.258280
 H        -2.056799         1.894065         0.308752
 H        -1.031339         3.534433         0.280241
 H        -1.032228         2.253043        -1.061554
 H         1.819365         0.365961         2.787052
 H         2.870732         2.788903         1.603163
 H         3.552241         1.422645         0.719147
 H         1.297299         3.145957        -1.396360
 H         0.319652        -1.418659         0.027596
 H         0.887679        -0.470014        -1.337094
 H         2.075742        -0.988733        -0.112145
