19
Iteration:  4342
 C        -1.202364         2.394849        -0.002864
 C         0.223373         1.885872         0.670612
 O         0.448777         2.011580         2.085326
 C         1.554801         1.038569         1.935303
 C         2.677496         1.865323         1.128109
 C         1.570885         1.912067         0.082878
 O         1.887268         2.230930        -1.313754
 C         0.950051         0.514831         0.529954
 C         0.850382        -0.708098        -0.354071
 H        -2.009219         1.655118         0.261895
 H        -1.436888         3.437879         0.307807
 H        -1.121377         2.328266        -1.165132
 H         1.708287         0.395718         2.763743
 H         2.928745         2.857418         1.525724
 H         3.581645         1.253274         0.815815
 H         1.415835         3.052663        -1.631818
 H         0.149593        -1.604872        -0.227565
 H         0.820764        -0.493235        -1.489884
 H         1.793191        -1.237137        -0.393122
