19
Iteration:  2790
 C        -1.132719         2.154741         0.048950
 C         0.253798         1.776962         0.526417
 O         0.271218         1.861765         1.976900
 C         1.512845         1.076187         1.862138
 C         2.576770         2.147767         1.173593
 C         1.663991         1.995636         0.020002
 O         1.925606         2.472492        -1.258569
 C         1.156305         0.566457         0.446983
 C         0.772545        -0.871112        -0.213803
 H        -1.921069         1.759432         0.752267
 H        -1.298288         3.234616         0.241623
 H        -1.299040         1.844722        -1.021166
 H         1.645357         0.570678         2.921312
 H         2.634867         2.977779         1.841427
 H         3.487755         1.534945         1.138044
 H         2.891061         2.606643        -1.288281
 H        -0.106884        -1.360028         0.347347
 H         0.347751        -0.767100        -1.377472
 H         1.527033        -1.536385        -0.445356
