19
Iteration:  1708
 C        -1.028928         2.322033        -0.052056
 C         0.186449         1.790713         0.632418
 O         0.354429         1.911285         2.017395
 C         1.532421         1.056529         1.904957
 C         2.553247         2.064114         1.167245
 C         1.581612         1.866777        -0.015892
 O         1.813061         2.386450        -1.348588
 C         1.050800         0.546458         0.489674
 C         0.847036        -0.779312        -0.136803
 H        -1.937826         2.108947         0.481778
 H        -1.034564         3.421857        -0.126223
 H        -1.110153         1.924322        -1.213857
 H         1.704985         0.442706         2.828204
 H         2.823255         3.048411         1.608428
 H         3.459537         1.338778         1.126465
 H         2.767294         2.263506        -1.399342
 H         0.500852        -1.554253         0.588437
 H         0.265255        -0.699386        -1.082959
 H         1.899543        -1.096207        -0.407701
