19
Iteration:  3154charge 0 multiplicity 1
 C        -1.075443         2.329588        -0.114774
 C         0.155405         1.858847         0.642880
 O         0.252354         1.849523         2.095476
 C         1.647475         1.124679         1.944543
 C         2.612501         2.082763         1.190354
 C         1.614616         1.930986         0.085063
 O         1.748693         2.215771        -1.295832
 C         1.110740         0.521087         0.545570
 C         0.895396        -0.674798        -0.376718
 H        -1.981546         1.918319         0.300067
 H        -1.217497         3.383522        -0.119032
 H        -0.997832         1.958298        -1.065879
 H         1.726313         0.529695         2.793720
 H         2.967822         3.029034         1.712890
 H         3.608191         1.625052         0.830012
 H         2.573781         1.669293        -1.415536
 H        -0.030184        -1.205024        -0.239224
 H         0.745958        -0.329053        -1.461014
 H         1.748513        -1.335256        -0.144220
