19
Iteration:  1112
 C        -1.068494         2.301532        -0.109475
 C         0.164083         1.751704         0.694907
 O         0.341749         1.807067         2.071228
 C         1.607192         1.146359         1.859080
 C         2.521163         2.126009         1.271548
 C         1.640920         1.959635        -0.043168
 O         1.859465         2.456638        -1.338232
 C         1.085639         0.547033         0.380576
 C         0.809158        -0.888491        -0.147425
 H        -2.131148         2.030706         0.202522
 H        -1.007737         3.390401         0.056402
 H        -1.119667         2.139845        -1.129769
 H         1.837078         0.433322         2.686710
 H         2.581115         3.065495         1.837007
 H         3.495371         1.569904         1.140761
 H         2.575963         1.977694        -1.746574
 H        -0.017657        -1.373550         0.434896
 H         0.365723        -0.975355        -1.178820
 H         1.782639        -1.430818         0.076188
