19
Iteration:  1852
 C        -0.998355         2.302629        -0.105170
 C         0.217684         1.739942         0.541255
 O         0.334161         1.958075         2.011190
 C         1.521096         1.151914         1.922863
 C         2.609617         2.003425         1.156633
 C         1.704500         1.841159        -0.028320
 O         1.704304         2.524163        -1.255112
 C         1.015225         0.510153         0.445745
 C         0.830380        -0.899103        -0.078414
 H        -1.859308         1.698580        -0.088387
 H        -1.284623         3.262759         0.453856
 H        -0.762274         2.632535        -1.209834
 H         1.938745         0.580346         2.720552
 H         2.798718         2.838417         1.841253
 H         3.597889         1.388391         1.176648
 H         2.555886         2.394314        -1.749792
 H         0.124948        -1.451051         0.565461
 H         0.445768        -0.966310        -1.142682
 H         1.715239        -1.519893         0.058951
