19
Iteration:  2254charge 0 multiplicity 1
 C        -0.948653         2.422416        -0.048105
 C         0.212013         1.738888         0.607727
 O         0.316343         1.920703         2.020353
 C         1.487130         1.045408         1.944431
 C         2.543480         2.127904         1.191255
 C         1.602360         1.875738         0.029296
 O         1.590460         2.300942        -1.272645
 C         1.124416         0.470979         0.484377
 C         1.041873        -0.809916        -0.249318
 H        -1.872328         1.947612        -0.128789
 H        -1.154479         3.395701         0.386181
 H        -0.672401         2.625931        -1.103585
 H         1.670748         0.641371         2.855073
 H         2.521765         3.079148         1.698104
 H         3.594087         1.786972         1.094144
 H         2.475940         2.273892        -1.684874
 H         0.549365        -1.660830         0.227415
 H         0.340433        -0.595955        -1.021265
 H         1.971790        -1.136284        -0.815566
