19
Iteration:  1777charge 0 multiplicity 1
 C        -1.021891         2.174556         0.011372
 C         0.251784         1.844809         0.559526
 O         0.300442         2.018394         2.036116
 C         1.521531         1.072618         1.898031
 C         2.547307         2.023359         1.232615
 C         1.592798         1.904071        -0.013854
 O         1.901200         2.338225        -1.318746
 C         1.021038         0.545323         0.551546
 C         0.851985        -0.707208        -0.235865
 H        -1.790946         1.563023         0.541299
 H        -1.134824         3.272035         0.372606
 H        -1.268494         2.046083        -1.113437
 H         1.717824         0.473887         2.778587
 H         2.827711         3.047390         1.477137
 H         3.406149         1.449266         0.886627
 H         2.111889         1.624180        -1.908436
 H         0.094329        -1.433971         0.142089
 H         0.606160        -0.379535        -1.389980
 H         1.726799        -1.281787        -0.318911
