19
Iteration:  4251charge 0 multiplicity 1
 C        -0.984818         2.432669        -0.007689
 C         0.267591         1.855225         0.662906
 O         0.384462         1.783449         2.080343
 C         1.599508         0.993801         1.870154
 C         2.531979         1.992271         1.180676
 C         1.558893         1.945842        -0.063020
 O         1.859024         2.428632        -1.405891
 C         1.019953         0.543896         0.479042
 C         0.680227        -0.878637        -0.165017
 H        -1.934883         1.845518         0.371388
 H        -0.877449         3.519880         0.113591
 H        -0.888012         2.291664        -1.104839
 H         1.870307         0.440106         2.822800
 H         2.627676         3.062599         1.615902
 H         3.542601         1.555118         1.074612
 H         2.360939         3.223872        -1.222811
 H         0.109411        -1.480683         0.483791
 H         0.238958        -0.764125        -1.125247
 H         1.669798        -1.347206        -0.328410
