19
Iteration:  3693charge 0 multiplicity 1
 C        -1.021297         2.299469        -0.009669
 C         0.180155         1.841101         0.624581
 O         0.346701         1.780741         2.076084
 C         1.567148         1.061991         1.877747
 C         2.494621         2.022652         1.125467
 C         1.568532         1.865449        -0.069547
 O         1.903633         2.469504        -1.249749
 C         1.007501         0.657306         0.379090
 C         0.864709        -0.785131        -0.115028
 H        -1.936476         1.636349         0.122329
 H        -1.448297         3.159062         0.305718
 H        -0.891788         2.432999        -1.152651
 H         1.878236         0.539332         2.762987
 H         2.673183         3.037359         1.444390
 H         3.467761         1.492439         0.946325
 H         2.446725         1.950928        -1.841427
 H         0.149090        -1.369457         0.439172
 H         0.477855        -0.916771        -1.140570
 H         1.936949        -1.147995         0.124433
