19
Iteration:   294charge 0 multiplicity 1
 C        -1.035492         2.337507        -0.027695
 C         0.221926         1.882967         0.593430
 O         0.285433         1.841863         2.052978
 C         1.512149         1.042137         1.872139
 C         2.539739         2.078528         1.197716
 C         1.587318         1.973053        -0.065769
 O         1.795477         2.339163        -1.354902
 C         1.079814         0.562863         0.467410
 C         0.944545        -0.824178        -0.107856
 H        -1.877649         1.835153         0.488089
 H        -0.907997         3.376638         0.301638
 H        -1.109539         2.357488        -1.140886
 H         1.792544         0.433054         2.681746
 H         2.465840         3.011704         1.719485
 H         3.571619         1.739080         1.120268
 H         2.518371         1.779862        -1.634896
 H         0.112884        -1.533221         0.292786
 H         0.823834        -0.759206        -1.217471
 H         1.804919        -1.400553         0.044804
