19
Iteration:  3340charge 0 multiplicity 1
 C        -1.166417         2.151732        -0.027896
 C         0.136842         1.771049         0.550882
 O         0.439400         1.881824         2.106229
 C         1.570304         1.060124         1.904898
 C         2.550974         2.062425         1.211903
 C         1.602349         1.984946        -0.019518
 O         1.976445         2.336065        -1.305983
 C         1.060371         0.608730         0.506889
 C         0.764943        -0.601613        -0.242394
 H        -2.055059         1.561753         0.263123
 H        -1.349459         3.214806         0.163078
 H        -1.096258         1.929611        -1.095495
 H         1.884641         0.332269         2.733672
 H         2.532774         2.985366         1.782654
 H         3.540239         1.745921         0.850813
 H         2.284434         1.462174        -1.640979
 H        -0.170662        -1.062243        -0.076293
 H         0.620989        -0.406244        -1.344854
 H         1.626477        -1.324007        -0.070342
