19
Iteration:  4773
 C        -1.089634         2.438166         0.082432
 C         0.145565         1.799355         0.673625
 O         0.452567         1.873314         2.062128
 C         1.524487         0.953822         1.856488
 C         2.573141         1.858190         1.174677
 C         1.636974         2.017026        -0.053114
 O         1.812162         2.293758        -1.376008
 C         0.897493         0.528803         0.553303
 C         0.963678        -0.654108        -0.280553
 H        -2.005478         1.917582         0.377776
 H        -0.912168         3.489292         0.159100
 H        -0.957994         2.335834        -0.974385
 H         1.777011         0.331471         2.676369
 H         2.834309         2.820222         1.692462
 H         3.432209         1.338600         0.774262
 H         1.451043         3.162949        -1.571899
 H         0.287396        -1.509738         0.196413
 H         0.801875        -0.497525        -1.363501
 H         1.931716        -0.997045        -0.044517
