19
Iteration:  4062charge 0 multiplicity 1
 C        -0.995139         2.420315        -0.018858
 C         0.308918         1.918250         0.625100
 O         0.358999         1.868606         2.073741
 C         1.516076         0.977815         1.885810
 C         2.598018         1.889776         1.109367
 C         1.664300         1.844403        -0.051839
 O         1.684121         2.454720        -1.244156
 C         0.980689         0.553024         0.477859
 C         0.852931        -0.820780        -0.201893
 H        -1.915269         1.845400         0.188816
 H        -1.326268         3.448210         0.013269
 H        -0.997412         2.426016        -1.170406
 H         1.723730         0.390528         2.753480
 H         2.879545         2.953686         1.393390
 H         3.567289         1.285271         1.020448
 H         2.549415         2.893495        -1.375474
 H         0.219052        -1.435779         0.475231
 H         0.306774        -0.658842        -1.149435
 H         1.884660        -1.348537        -0.343988
