19
Iteration:  1503
 C        -0.942286         2.326517        -0.126771
 C         0.223533         1.793710         0.555254
 O         0.335259         1.937389         1.960552
 C         1.570538         1.066644         1.903074
 C         2.579965         1.991092         1.239334
 C         1.572341         1.860509         0.007720
 O         1.679223         2.437135        -1.224209
 C         1.107402         0.493522         0.452389
 C         0.860801        -0.796748        -0.136822
 H        -1.822988         2.169952         0.453440
 H        -0.907523         3.459484        -0.172551
 H        -1.052707         1.944438        -1.123131
 H         1.858146         0.648070         2.979643
 H         2.649635         2.922607         1.793317
 H         3.588788         1.601069         1.034347
 H         2.469538         2.095465        -1.632757
 H         0.163755        -1.320047         0.525390
 H         0.184764        -0.563675        -1.056068
 H         1.660580        -1.403889        -0.334066
