19
Iteration:  1166charge 0 multiplicity 1
 C        -1.176836         2.195579         0.010072
 C         0.177360         1.762041         0.666295
 O         0.321952         1.974901         1.996849
 C         1.483220         1.135721         1.875016
 C         2.655726         2.000335         1.259770
 C         1.673331         1.976974         0.029979
 O         1.909358         2.374153        -1.367699
 C         1.015932         0.585210         0.445678
 C         0.855575        -0.781719        -0.220213
 H        -1.951067         1.399390         0.299886
 H        -1.570407         3.170950         0.367860
 H        -1.198507         2.396819        -1.069970
 H         1.503431         0.499622         2.801299
 H         2.908665         2.947455         1.771187
 H         3.607558         1.456409         0.948287
 H         2.668914         1.832194        -1.615365
 H         0.449518        -1.571298         0.431851
 H         0.474895        -0.632398        -1.196004
 H         1.888885        -1.196465        -0.624503
