19
Iteration:  1285charge 0 multiplicity 1
 C        -1.049290         2.347179         0.024321
 C         0.148756         1.851642         0.560056
 O         0.340054         1.798404         1.991337
 C         1.490336         0.986380         1.828722
 C         2.477197         2.095132         1.102196
 C         1.605908         1.953018        -0.034752
 O         1.928815         2.449892        -1.275711
 C         1.018266         0.580364         0.459855
 C         0.887452        -0.868794        -0.045320
 H        -1.853297         1.996412         0.710728
 H        -1.038727         3.458188        -0.093822
 H        -1.370620         2.055427        -1.076698
 H         1.925275         0.507944         2.812552
 H         2.720733         3.061294         1.525242
 H         3.429593         1.605273         0.704530
 H         2.849005         2.165048        -1.563579
 H         0.214549        -1.304085         0.669418
 H         0.693414        -1.072781        -1.034752
 H         1.875084        -1.414081         0.132072
