19
Iteration:  1364charge 0 multiplicity 1
 C        -0.967954         2.196556        -0.176397
 C         0.156355         1.805230         0.635391
 O         0.359725         1.935243         2.155467
 C         1.569688         1.082077         2.001980
 C         2.606008         2.028904         1.158927
 C         1.594309         1.926275         0.033175
 O         1.782568         2.284502        -1.317230
 C         1.035537         0.621238         0.517579
 C         0.776366        -0.655977        -0.282888
 H        -1.960688         1.577174        -0.095000
 H        -1.326123         3.263931         0.022147
 H        -0.631726         2.033615        -1.160897
 H         1.897011         0.489705         2.813169
 H         2.678757         3.134109         1.371476
 H         3.586147         1.591455         0.919491
 H         2.605281         1.789172        -1.577030
 H         0.168229        -1.411667         0.189914
 H         0.321753        -0.529603        -1.190299
 H         1.831429        -1.133632        -0.366409
