19
Iteration:    13
 C        -0.968510         2.344935        -0.001856
 C         0.222150         1.825971         0.597534
 O         0.313712         1.801854         1.976351
 C         1.580694         1.103721         1.891755
 C         2.515865         2.163867         1.249753
 C         1.637499         1.957356         0.029061
 O         1.771263         2.277131        -1.325671
 C         1.041062         0.543766         0.428658
 C         0.874437        -0.764810        -0.195267
 H        -1.851680         1.770460         0.375677
 H        -1.108651         3.458799         0.104971
 H        -0.903223         2.151261        -1.142072
 H         1.823981         0.716420         2.814899
 H         2.572910         3.061153         1.814415
 H         3.451330         1.669128         1.193390
 H         2.280608         1.480878        -1.712970
 H         0.170640        -1.343273         0.572079
 H         0.322178        -0.641403        -1.124470
 H         1.738299        -1.316571        -0.325283
