19
Iteration:  2970
 C        -1.079743         2.145400        -0.078361
 C         0.150641         1.817229         0.641090
 O         0.425020         2.008562         2.024400
 C         1.500745         1.008240         1.892671
 C         2.570329         1.899126         1.247262
 C         1.597102         1.935432         0.037463
 O         1.818546         2.431762        -1.292312
 C         0.998935         0.613794         0.503259
 C         0.957612        -0.624542        -0.284089
 H        -1.884827         1.595746         0.509933
 H        -1.461499         3.208462         0.003360
 H        -1.066651         1.840910        -1.105039
 H         1.462051         0.469646         2.734908
 H         2.888224         2.729479         1.763601
 H         3.457996         1.359562         1.033259
 H         2.086092         1.675102        -1.881862
 H         0.108739        -1.200054         0.095841
 H         0.919589        -0.654766        -1.380919
 H         1.942802        -1.223275        -0.013911
