19
Iteration:  3975
 C        -1.234277         2.251786         0.019163
 C         0.204978         1.822737         0.627397
 O         0.393449         1.878194         2.032452
 C         1.639141         1.055581         1.858377
 C         2.623880         2.009754         1.228734
 C         1.618692         1.974104         0.021180
 O         2.028185         2.395387        -1.295604
 C         1.051934         0.525044         0.409556
 C         0.714809        -0.740053        -0.243719
 H        -1.962872         1.765794         0.698675
 H        -1.297598         3.322857         0.126679
 H        -1.247889         1.974817        -1.081450
 H         1.763551         0.436492         2.724002
 H         2.831562         2.896332         1.860229
 H         3.585079         1.471093         0.975403
 H         1.302189         2.655100        -1.868141
 H        -0.156906        -1.282700         0.269853
 H         0.152850        -0.489799        -1.190787
 H         1.567170        -1.544954        -0.370812
