19
Iteration:  4277
 C        -1.064145         2.448233         0.069269
 C         0.138493         1.775317         0.621994
 O         0.386416         1.877803         2.086734
 C         1.574398         1.044293         1.787526
 C         2.582778         1.988950         1.150649
 C         1.636017         1.873766        -0.041233
 O         1.858337         2.256591        -1.258197
 C         1.072434         0.603658         0.388377
 C         0.761992        -0.782893        -0.221398
 H        -1.892986         1.899212         0.318986
 H        -0.940887         3.464488         0.269659
 H        -1.015714         2.535672        -1.037734
 H         1.839961         0.365221         2.551119
 H         2.601929         2.986236         1.538266
 H         3.603784         1.542708         1.132080
 H         2.039953         3.185347        -1.136669
 H         0.114154        -1.328375         0.576268
 H         0.229725        -0.658198        -1.256767
 H         1.778143        -1.201969        -0.294783
