19
Iteration:  3978
 C        -1.200548         2.262895         0.010905
 C         0.183633         1.807186         0.630195
 O         0.403995         1.868838         2.040764
 C         1.609089         1.050185         1.862940
 C         2.631178         2.017943         1.235576
 C         1.646900         1.997029        -0.008272
 O         2.019335         2.406430        -1.298154
 C         1.061972         0.511548         0.404794
 C         0.696378        -0.749394        -0.236917
 H        -1.998588         1.783557         0.676063
 H        -1.301487         3.295155         0.192338
 H        -1.302760         1.915069        -1.001570
 H         1.727474         0.454977         2.805817
 H         2.813665         2.877091         1.851787
 H         3.521106         1.504798         0.982680
 H         1.289730         2.569942        -1.925635
 H        -0.069599        -1.288473         0.341458
 H         0.246753        -0.509138        -1.234677
 H         1.471373        -1.406106        -0.380266
