19
Iteration:   633
 C        -1.027133         2.160814        -0.218531
 C         0.203672         1.808925         0.622957
 O         0.371357         1.920098         2.063156
 C         1.553912         1.054679         1.943055
 C         2.604477         1.940742         1.292175
 C         1.581414         1.951556         0.011108
 O         1.669101         2.392629        -1.359395
 C         1.100657         0.586805         0.495297
 C         0.891584        -0.636795        -0.156616
 H        -1.886434         1.536863         0.112747
 H        -1.178531         3.233219        -0.210738
 H        -0.733530         1.869799        -1.246144
 H         1.833480         0.578131         2.988935
 H         2.816382         2.958771         1.815496
 H         3.563166         1.361748         1.246296
 H         2.593035         2.171928        -1.619019
 H         0.262417        -1.215529         0.417769
 H         0.219238        -0.364438        -0.970983
 H         1.649610        -1.162801        -0.684797
