19
Iteration:  3550
 C        -1.163307         2.080674         0.052255
 C         0.234112         1.809595         0.562502
 O         0.368327         2.027728         2.048538
 C         1.461109         1.097817         1.903738
 C         2.603252         1.992704         1.248744
 C         1.717960         1.856888        -0.017200
 O         1.857249         2.395578        -1.316971
 C         1.112471         0.555906         0.491952
 C         0.779939        -0.638140        -0.330581
 H        -1.810301         1.316586         0.677899
 H        -1.512693         3.180893         0.347086
 H        -1.300585         1.769670        -1.101182
 H         1.779233         0.582280         2.792065
 H         2.718303         2.989016         1.684121
 H         3.520758         1.331656         1.225715
 H         2.712639         2.224922        -1.730149
 H        -0.087394        -1.025887         0.044982
 H         0.558387        -0.413696        -1.371424
 H         1.564959        -1.416990        -0.231067
