19
Iteration:  4508
 C        -1.073122         2.317432         0.074531
 C         0.184944         1.847460         0.695386
 O         0.428880         1.843155         2.013817
 C         1.576191         1.038493         1.909514
 C         2.567830         1.913608         1.167990
 C         1.582066         1.879150         0.009387
 O         1.917145         2.239836        -1.374784
 C         0.977486         0.630538         0.455828
 C         0.781055        -0.604864        -0.251645
 H        -2.027785         1.868415         0.362442
 H        -1.187291         3.433506         0.277864
 H        -1.192321         2.233198        -1.057942
 H         1.825536         0.415371         2.854677
 H         2.821065         2.914687         1.616440
 H         3.513073         1.390499         0.871466
 H         1.869994         3.200127        -1.417946
 H         0.093734        -1.303426         0.230972
 H         0.610703        -0.325624        -1.289332
 H         1.681161        -1.060448        -0.424187
