19
Iteration:  2818
 C        -1.085110         2.136276        -0.126077
 C         0.198823         1.758296         0.607802
 O         0.390582         1.929543         2.003241
 C         1.533394         1.006735         1.895147
 C         2.579514         1.979222         1.169280
 C         1.614408         1.876469        -0.047890
 O         1.842562         2.667527        -1.247507
 C         1.014691         0.545022         0.494968
 C         0.822465        -0.777466        -0.122091
 H        -1.979876         1.623851         0.175684
 H        -1.266560         3.233020         0.005928
 H        -0.937396         1.952468        -1.152371
 H         1.645501         0.496509         2.792368
 H         2.626201         2.902865         1.814332
 H         3.508262         1.421395         1.056821
 H         2.808517         2.487752        -1.447759
 H         0.242136        -1.445522         0.476828
 H         0.353051        -0.754215        -1.009999
 H         1.825903        -1.386567        -0.277529
