19
Iteration:  3134
 C        -1.038841         2.190308        -0.112186
 C         0.200072         1.823940         0.632166
 O         0.398368         1.952461         2.104887
 C         1.533183         1.043459         1.933453
 C         2.540648         1.948726         1.268914
 C         1.629142         1.971980         0.002492
 O         1.725092         2.302027        -1.314393
 C         1.003747         0.624675         0.475683
 C         0.949448        -0.624244        -0.272578
 H        -1.959545         1.697485         0.183854
 H        -1.306308         3.298854        -0.053171
 H        -0.779128         1.989516        -1.172419
 H         1.754336         0.385416         2.825525
 H         2.921537         2.910352         1.630808
 H         3.517809         1.409903         1.236701
 H         2.179708         1.586998        -1.768856
 H         0.002495        -1.115513        -0.126367
 H         0.825740        -0.376527        -1.362100
 H         1.751242        -1.230352        -0.188300
