19
Iteration:   791charge 0 multiplicity 1
 C        -1.079932         2.144298        -0.131796
 C         0.173378         1.811466         0.616384
 O         0.353231         2.022926         2.017827
 C         1.544488         1.097104         1.931858
 C         2.650703         1.914501         1.246803
 C         1.679326         1.963389         0.028650
 O         1.705816         2.402263        -1.293205
 C         1.008320         0.531747         0.572624
 C         0.924228        -0.715722        -0.258328
 H        -1.831501         1.413487        -0.016962
 H        -1.506965         3.170036         0.013461
 H        -0.829176         2.193860        -1.246542
 H         1.775811         0.520276         2.886529
 H         2.615548         2.896477         1.727863
 H         3.667423         1.488776         1.204814
 H         2.382242         1.967204        -1.792293
 H         0.503136        -1.633962         0.250001
 H         0.320056        -0.394113        -1.074351
 H         1.843378        -1.010261        -0.633704
