19
Iteration:  1113charge 0 multiplicity 1
 C        -1.068200         2.299807        -0.097586
 C         0.167576         1.751923         0.695118
 O         0.338232         1.807015         2.065748
 C         1.604754         1.145178         1.861034
 C         2.523871         2.131101         1.268751
 C         1.640232         1.967518        -0.043068
 O         1.865494         2.454176        -1.338293
 C         1.079724         0.547221         0.383050
 C         0.813232        -0.895065        -0.147846
 H        -2.143680         2.019641         0.212236
 H        -1.005601         3.394506         0.043557
 H        -1.112877         2.156315        -1.133979
 H         1.848092         0.440359         2.666570
 H         2.575473         3.073527         1.846588
 H         3.477628         1.577245         1.158386
 H         2.584153         1.965108        -1.769436
 H        -0.019863        -1.382593         0.458686
 H         0.345613        -0.987118        -1.231679
 H         1.754637        -1.435944         0.056544
