19
Iteration:  2632
 C        -1.027650         2.279111         0.117907
 C         0.212903         1.674812         0.552924
 O         0.242796         1.850232         2.000481
 C         1.481244         1.039528         1.808125
 C         2.484830         2.182920         1.217714
 C         1.646226         1.978574        -0.024344
 O         1.883536         2.494761        -1.335063
 C         1.164302         0.529668         0.348262
 C         0.843570        -0.897407        -0.125545
 H        -1.897635         1.903944         0.581027
 H        -0.956374         3.268110         0.537232
 H        -1.083008         2.298476        -0.997889
 H         1.651628         0.657867         2.824062
 H         2.524415         3.252027         1.635937
 H         3.422296         1.618997         1.125502
 H         2.815699         2.214269        -1.539096
 H         0.365345        -1.481522         0.662060
 H         0.303660        -0.949721        -1.047565
 H         1.858962        -1.379361        -0.198189
