19
Iteration:  4700
 C        -1.124153         2.281925         0.061520
 C         0.177344         1.888225         0.630047
 O         0.419319         1.825882         2.087714
 C         1.578379         0.994310         1.885445
 C         2.595304         2.069542         1.149419
 C         1.663612         1.925371        -0.012355
 O         1.906488         2.245747        -1.259540
 C         1.086820         0.619626         0.355208
 C         0.672207        -0.706673        -0.267102
 H        -1.882667         1.499744         0.368631
 H        -1.273632         3.425195         0.215107
 H        -1.017576         2.104351        -1.028621
 H         1.964974         0.389467         2.718050
 H         2.681324         3.011019         1.754767
 H         3.609618         1.606688         0.927167
 H         1.926329         3.219573        -1.344409
 H        -0.203794        -1.129463         0.201719
 H         0.388340        -0.311351        -1.274576
 H         1.503576        -1.470428        -0.431694
