19
Iteration:  3600charge 0 multiplicity 1
 C        -1.090620         2.347767        -0.150645
 C         0.133858         1.755491         0.686986
 O         0.350371         1.747557         2.098847
 C         1.617396         1.061574         1.892424
 C         2.538173         2.087569         1.156543
 C         1.561602         1.909220         0.013215
 O         1.836048         2.349846        -1.272731
 C         1.125714         0.643210         0.454332
 C         0.887068        -0.678883        -0.191870
 H        -2.089848         2.180981         0.099889
 H        -0.984265         3.445049         0.000057
 H        -0.841487         1.961004        -1.053992
 H         1.942491         0.393028         2.779620
 H         2.662589         3.074713         1.659322
 H         3.496810         1.655536         0.935276
 H         2.233934         1.595405        -1.789518
 H        -0.019979        -1.343838         0.297637
 H         0.274553        -0.395307        -1.103564
 H         1.760530        -1.269881        -0.386623
