19
Iteration:  2054
 C        -1.086549         2.329635        -0.013051
 C         0.150418         1.730296         0.505450
 O         0.384984         1.950344         1.936110
 C         1.543914         1.112308         1.873069
 C         2.571547         2.046441         1.140986
 C         1.546809         2.000683         0.020245
 O         1.839804         2.493518        -1.223462
 C         1.025172         0.473380         0.500165
 C         0.923433        -0.981495        -0.091337
 H        -2.075239         1.799073        -0.000225
 H        -1.155264         3.225666         0.551051
 H        -0.923561         2.755468        -1.076602
 H         1.794341         0.537659         2.908761
 H         2.683577         3.067177         1.652900
 H         3.501241         1.513764         0.978664
 H         2.467362         1.925657        -1.676603
 H         0.412785        -1.756134         0.515109
 H         0.446783        -0.951641        -1.156028
 H         1.847326        -1.377870        -0.346052
