19
Iteration:   423
 C        -1.130074         2.167489         0.010399
 C         0.188910         1.739815         0.564483
 O         0.334327         1.951319         2.005671
 C         1.534914         1.135892         1.881759
 C         2.530782         2.036391         1.211011
 C         1.672192         1.931125        -0.021564
 O         1.966593         2.468712        -1.263865
 C         1.028387         0.527339         0.451115
 C         0.811930        -0.816999        -0.168157
 H        -2.020985         1.791478         0.453974
 H        -1.180685         3.276159         0.032642
 H        -1.378365         2.089132        -1.046594
 H         1.798824         0.658859         2.750109
 H         2.691155         3.095673         1.494208
 H         3.530829         1.625237         1.032666
 H         2.564755         1.801339        -1.699144
 H         0.350072        -1.496352         0.541708
 H         0.110172        -0.787353        -1.061229
 H         1.774391        -1.053908        -0.532978
