19
Iteration:  4610
 C        -1.021034         2.339810        -0.033971
 C         0.242875         1.840712         0.634391
 O         0.429426         1.949534         2.127544
 C         1.515585         0.940415         1.907180
 C         2.559963         1.820748         1.129975
 C         1.630683         1.836039        -0.054502
 O         1.834307         2.494072        -1.312124
 C         0.964971         0.557720         0.424696
 C         0.877720        -0.723177        -0.171438
 H        -1.962333         1.772247         0.204734
 H        -1.228479         3.445509         0.080071
 H        -1.079745         2.403833        -1.108408
 H         1.841795         0.413023         2.761702
 H         2.938502         2.724562         1.688636
 H         3.293419         1.138828         0.734139
 H         1.178871         3.203728        -1.526092
 H         0.152407        -1.347031         0.425459
 H         0.320771        -0.628743        -1.119420
 H         1.781794        -1.203611        -0.239146
