19
Iteration:  1924
 C        -1.128520         2.241448        -0.069602
 C         0.213503         1.816457         0.564347
 O         0.312522         1.846335         2.039956
 C         1.588304         1.086643         1.863590
 C         2.545285         1.996409         1.208084
 C         1.639801         1.979832         0.021831
 O         1.861653         2.325018        -1.308786
 C         1.118944         0.601523         0.430556
 C         0.807743        -0.659243        -0.123936
 H        -1.968241         1.942333         0.652049
 H        -1.178915         3.285816        -0.143104
 H        -1.321428         1.856680        -1.151299
 H         1.940171         0.527703         2.861396
 H         2.626359         2.975818         1.693049
 H         3.502492         1.585142         0.975175
 H         2.745994         1.896296        -1.499579
 H         0.252322        -1.310744         0.588573
 H         0.158211        -0.586919        -0.977194
 H         1.731230        -1.300004        -0.457638
