19
Iteration:  2402charge 0 multiplicity 1
 C        -0.926249         2.124716        -0.180563
 C         0.188801         1.812128         0.663085
 O         0.379403         1.903732         2.138781
 C         1.486371         1.012679         1.914334
 C         2.557981         2.037733         1.191164
 C         1.624492         1.937316         0.019396
 O         1.665896         2.441915        -1.311820
 C         1.064381         0.578655         0.486456
 C         0.870156        -0.700896        -0.211092
 H        -1.893099         1.603338         0.182277
 H        -1.159278         3.191796        -0.124242
 H        -0.685453         1.805082        -1.282138
 H         1.907336         0.448705         2.911859
 H         2.954561         3.025320         1.511238
 H         3.372611         1.391938         0.932781
 H         2.549873         2.838537        -1.534316
 H         0.053426        -1.361983         0.109445
 H         0.743987        -0.349644        -1.282955
 H         1.726271        -1.380615        -0.258963
