19
Iteration:  1947charge 0 multiplicity 1
 C        -1.013184         2.304040         0.073992
 C         0.234369         1.699675         0.597297
 O         0.288511         1.899890         1.989641
 C         1.564167         1.119901         1.889407
 C         2.525606         2.277015         1.289249
 C         1.672143         1.900143         0.009280
 O         1.851050         2.282105        -1.335070
 C         1.149854         0.471591         0.506441
 C         0.721877        -0.755917        -0.336742
 H        -1.832109         2.057746         0.743149
 H        -1.011092         3.324160        -0.127507
 H        -1.132187         1.714367        -0.971373
 H         1.757334         0.580306         2.933261
 H         2.467701         3.249095         1.766980
 H         3.583755         2.019557         1.078226
 H         2.530025         1.733939        -1.728675
 H        -0.032888        -1.348489         0.219250
 H         0.272197        -0.507819        -1.223792
 H         1.603522        -1.564104        -0.529576
