19
Iteration:  4858charge 0 multiplicity 1
 C        -1.052704         2.323407        -0.001864
 C         0.185621         1.866606         0.653069
 O         0.418199         1.819964         2.122114
 C         1.595814         1.028713         1.770524
 C         2.641104         1.945626         1.160707
 C         1.619557         1.889502        -0.000574
 O         1.833772         2.365610        -1.256112
 C         1.000971         0.625011         0.403714
 C         0.747380        -0.737231        -0.191605
 H        -1.948016         1.679349         0.254678
 H        -1.354413         3.387457         0.207096
 H        -0.968476         2.163623        -1.104579
 H         1.870912         0.442807         2.613000
 H         2.927043         2.933128         1.564495
 H         3.518261         1.482310         0.745035
 H         1.541219         3.300464        -1.386475
 H         0.177218        -1.459522         0.415592
 H         0.289735        -0.674806        -1.181987
 H         1.763679        -1.161391        -0.523342
