19
Iteration:  5000
 C        -0.953585         2.409170         0.133519
 C         0.176415         1.748689         0.644846
 O         0.380138         1.961621         2.029190
 C         1.484825         0.982662         1.865406
 C         2.615145         1.900658         1.225396
 C         1.565395         1.969010         0.043529
 O         1.725938         2.328072        -1.360380
 C         1.012379         0.528889         0.403495
 C         0.944642        -0.759759        -0.335897
 H        -1.940437         1.997436         0.519627
 H        -0.776163         3.463458         0.471052
 H        -0.978314         2.346669        -0.969751
 H         1.707536         0.242902         2.628428
 H         2.942889         2.853991         1.702920
 H         3.540137         1.364932         1.001779
 H         1.546749         3.302871        -1.396523
 H         0.401094        -1.302196         0.350839
 H         0.405361        -0.734536        -1.256434
 H         2.003504        -1.160651        -0.538548
