19
Iteration:  4813
 C        -1.074069         2.573613         0.107614
 C         0.198906         1.803763         0.599244
 O         0.373340         1.735498         2.000753
 C         1.552545         1.023993         1.846806
 C         2.623093         2.060543         1.112563
 C         1.661834         1.817581         0.011390
 O         1.750054         2.304768        -1.300516
 C         0.984141         0.561015         0.441846
 C         0.912124        -0.772519        -0.212786
 H        -1.956158         2.139018         0.636347
 H        -0.970603         3.687291         0.341793
 H        -1.365791         2.352616        -0.981706
 H         1.827069         0.346720         2.668010
 H         2.642954         3.040080         1.574778
 H         3.581689         1.567633         1.317685
 H         2.044212         3.262946        -1.282249
 H         0.295182        -1.457444         0.330809
 H         0.399187        -0.737782        -1.173189
 H         1.920541        -1.306779        -0.540515
