19
Iteration:  3489
 C        -1.045423         2.294236        -0.060289
 C         0.266211         1.818988         0.553355
 O         0.354679         1.844242         2.047791
 C         1.537740         0.985224         1.815819
 C         2.557106         2.020220         1.182347
 C         1.683426         1.917350        -0.029258
 O         1.775474         2.518100        -1.294124
 C         0.999333         0.581019         0.483431
 C         0.825126        -0.776016        -0.073713
 H        -1.804959         1.565905         0.059342
 H        -1.514401         3.191006         0.228205
 H        -0.855220         2.310056        -1.095753
 H         1.845133         0.395793         2.670389
 H         2.747050         2.934999         1.773359
 H         3.587763         1.687792         1.116831
 H         2.383311         2.000024        -1.830651
 H         0.051642        -1.400666         0.588565
 H         0.511223        -0.865332        -1.127875
 H         1.777185        -1.333129         0.078112
