19
Iteration:   177charge 0 multiplicity 1
 C        -0.923436         2.242218        -0.037208
 C         0.296662         1.791964         0.590753
 O         0.285334         1.788135         2.044190
 C         1.587011         1.100684         1.900378
 C         2.463403         2.179788         1.236211
 C         1.680762         1.948757        -0.014228
 O         1.759157         2.381978        -1.353043
 C         1.210327         0.564083         0.400202
 C         0.691568        -0.770244        -0.140878
 H        -1.709561         1.728329         0.391733
 H        -1.051722         3.269156        -0.000353
 H        -1.021155         2.047378        -1.117182
 H         1.669430         0.550883         2.736873
 H         2.346861         3.172050         1.731924
 H         3.487730         1.815283         1.097369
 H         2.454029         1.829870        -1.686758
 H        -0.011432        -1.084500         0.647639
 H         0.243185        -0.749348        -1.126334
 H         1.503112        -1.617955         0.020897
