19
Iteration:  2076
 C        -1.037523         2.360118        -0.020713
 C         0.193061         1.771666         0.576573
 O         0.246546         1.772808         2.028598
 C         1.576987         1.070461         1.863533
 C         2.502718         2.131250         1.194062
 C         1.618774         1.875893        -0.039975
 O         1.827704         2.404346        -1.354623
 C         1.188451         0.577851         0.417037
 C         0.842963        -0.788912        -0.038086
 H        -1.945125         1.711856         0.085229
 H        -1.254902         3.291231         0.422015
 H        -0.923488         2.623017        -1.153265
 H         2.095733         0.381798         2.669697
 H         2.450665         3.133142         1.748958
 H         3.526276         1.743410         1.056322
 H         2.774405         2.196519        -1.572957
 H         0.417662        -1.349679         0.823676
 H         0.093240        -0.812540        -0.930533
 H         1.643872        -1.367214        -0.385735
