19
Iteration:  1467
 C        -1.042981         2.308217        -0.093315
 C         0.227541         1.941254         0.630478
 O         0.312392         1.953739         2.042636
 C         1.507161         1.030809         1.840618
 C         2.616161         1.836989         1.094738
 C         1.578262         1.865336        -0.054578
 O         1.774100         2.529566        -1.269155
 C         0.960894         0.607943         0.456339
 C         0.970694        -0.869843        -0.022996
 H        -1.833608         1.713638         0.325536
 H        -1.186223         3.345598        -0.118625
 H        -0.943147         2.005782        -1.242076
 H         1.598870         0.503448         2.783512
 H         2.814973         2.717276         1.671816
 H         3.491972         1.172718         0.907360
 H         2.675333         2.335800        -1.493530
 H         0.219422        -1.413302         0.585533
 H         0.714469        -1.047334        -1.116809
 H         1.938664        -1.333599         0.086472
