19
Iteration:  1636
 C        -1.074770         2.397347        -0.124680
 C         0.166131         1.843743         0.596846
 O         0.357863         1.841424         2.070807
 C         1.541222         1.136918         1.877603
 C         2.663649         1.989448         1.178209
 C         1.636815         1.933583         0.005945
 O         1.741178         2.377106        -1.272591
 C         1.031792         0.598051         0.423287
 C         0.885244        -0.873426        -0.089640
 H        -1.778399         1.501515        -0.071889
 H        -1.637830         3.344864         0.121380
 H        -0.857939         2.415373        -1.121705
 H         1.729731         0.382416         2.700177
 H         2.860456         2.967955         1.662751
 H         3.550980         1.490801         0.888103
 H         2.506048         2.054926        -1.730795
 H         0.024162        -1.276065         0.440545
 H         0.757225        -0.845839        -1.215562
 H         1.751591        -1.466975         0.129472
