19
Iteration:  3018
 C        -0.927442         2.262084        -0.086732
 C         0.218616         1.739637         0.555666
 O         0.291038         1.801561         2.018868
 C         1.604213         1.042726         1.857882
 C         2.525601         2.065820         1.175376
 C         1.638720         1.919033         0.019726
 O         1.719146         2.463731        -1.247481
 C         1.125817         0.583796         0.411189
 C         0.764907        -0.744026        -0.086474
 H        -1.897415         1.895416         0.149655
 H        -0.940722         3.334384        -0.011938
 H        -0.640310         2.054077        -1.166923
 H         1.676499         0.533868         2.929108
 H         2.729101         3.026708         1.700066
 H         3.550478         1.687408         1.099311
 H         2.656049         2.457528        -1.423012
 H         0.099662        -1.325608         0.579663
 H         0.217438        -0.658543        -0.974684
 H         1.669945        -1.312545        -0.403388
