19
Iteration:   144charge 0 multiplicity 1
 C        -1.110564         2.240261        -0.125575
 C         0.199366         1.747929         0.619257
 O         0.393056         1.887589         2.058402
 C         1.620061         1.126622         1.887784
 C         2.553909         2.060091         1.157345
 C         1.599635         1.901386        -0.007465
 O         1.870280         2.511280        -1.277649
 C         1.012259         0.508655         0.444012
 C         0.782473        -0.806729        -0.103697
 H        -1.932752         1.711478         0.225550
 H        -1.229332         3.212650         0.203302
 H        -0.977045         2.087129        -1.198396
 H         1.821759         0.628875         2.737400
 H         2.680925         3.065576         1.593933
 H         3.497259         1.601549         0.876240
 H         2.546858         2.028507        -1.791350
 H        -0.176729        -1.172150         0.262781
 H         0.724051        -1.014791        -1.156358
 H         1.642259        -1.493813         0.277843
