19
Iteration:  4531charge 0 multiplicity 1
 C        -1.073679         2.401126         0.083156
 C         0.223508         1.835929         0.689503
 O         0.332829         1.881979         2.148706
 C         1.556514         1.075307         1.872912
 C         2.633180         2.060942         1.177040
 C         1.573552         1.935835         0.029593
 O         1.864204         2.164717        -1.342051
 C         1.083805         0.553101         0.388227
 C         0.774206        -0.769435        -0.393501
 H        -1.974855         2.027517         0.581140
 H        -1.080720         3.513907         0.355852
 H        -1.365425         2.208749        -1.016483
 H         1.745423         0.134381         2.519029
 H         2.762310         3.060392         1.714527
 H         3.641389         1.657580         1.002061
 H         2.309192         2.995108        -1.600130
 H        -0.052874        -1.244213         0.194872
 H         0.736633        -0.487885        -1.426370
 H         1.570846        -1.369046        -0.410001
