19
Iteration:  1556charge 0 multiplicity 1
 C        -1.095629         2.212692        -0.020087
 C         0.204574         1.850201         0.653375
 O         0.335368         1.862098         2.049958
 C         1.513712         1.003880         1.892587
 C         2.542382         2.121933         1.187277
 C         1.627150         1.993221        -0.038041
 O         1.907378         2.262628        -1.324068
 C         1.142043         0.643625         0.477407
 C         0.791793        -0.676798        -0.205951
 H        -1.969336         1.816639         0.350766
 H        -1.181730         3.306024        -0.018319
 H        -1.010214         1.933267        -1.196541
 H         1.744705         0.270749         2.753121
 H         2.665062         2.995845         1.770512
 H         3.512884         1.587755         1.141238
 H         2.458199         1.587403        -1.699035
 H         0.075213        -1.202684         0.468595
 H         0.162270        -0.435590        -1.185310
 H         1.646175        -1.268170        -0.375796
