19
Iteration:  1675
 C        -0.928622         2.449414        -0.058592
 C         0.242202         1.756500         0.594345
 O         0.333554         1.808880         1.982409
 C         1.567283         1.086252         1.901291
 C         2.500751         2.218352         1.184686
 C         1.641285         1.851161        -0.005333
 O         1.718742         2.415280        -1.281295
 C         1.122169         0.494491         0.456463
 C         0.793594        -0.871925        -0.105661
 H        -1.834350         1.949951         0.259524
 H        -0.794710         3.494144         0.176288
 H        -0.926871         2.272642        -1.290037
 H         1.778371         0.464640         2.798523
 H         2.446266         3.213667         1.647210
 H         3.561105         1.729308         1.209837
 H         2.206684         1.683169        -1.757272
 H         0.055997        -1.463116         0.507239
 H         0.334326        -0.915633        -1.125595
 H         1.765713        -1.455582        -0.269076
