19
Iteration:  1087
 C        -0.945903         2.239864        -0.172400
 C         0.291747         1.842809         0.606563
 O         0.326578         1.847393         2.010032
 C         1.531114         1.027027         1.871574
 C         2.574417         2.023368         1.107515
 C         1.617877         1.956864         0.011777
 O         1.666285         2.464087        -1.216499
 C         1.040365         0.531432         0.574367
 C         0.870562        -0.751078        -0.105283
 H        -1.881290         1.891700         0.118047
 H        -1.029310         3.331025        -0.153455
 H        -0.959653         1.978145        -1.243980
 H         1.787018         0.241832         2.610416
 H         2.711718         2.971771         1.644836
 H         3.501862         1.420267         0.934201
 H         2.517644         2.380464        -1.692039
 H        -0.016559        -1.255127         0.230550
 H         0.617469        -0.617373        -1.043453
 H         1.792286        -1.397635         0.155429
