19
Iteration:  2059charge 0 multiplicity 1
 C        -1.098004         2.361927        -0.030034
 C         0.156479         1.700847         0.514901
 O         0.400452         1.892393         1.950027
 C         1.557862         1.107054         1.877673
 C         2.524188         2.086669         1.162909
 C         1.559858         2.013435         0.012363
 O         1.843851         2.466937        -1.238818
 C         1.053363         0.477265         0.483613
 C         0.905377        -0.951561        -0.093308
 H        -2.000472         1.788434         0.007163
 H        -1.188421         3.304093         0.611393
 H        -0.929203         2.695663        -1.057551
 H         1.596935         0.695017         2.816656
 H         2.745667         3.038151         1.566951
 H         3.481127         1.553343         0.970934
 H         2.558059         1.985055        -1.708268
 H         0.375092        -1.612803         0.600218
 H         0.322127        -0.876691        -0.957483
 H         1.914824        -1.495213        -0.387905
