19
Iteration:  2119charge 0 multiplicity 1
 C        -1.066711         2.122725        -0.158357
 C         0.239594         1.795134         0.636602
 O         0.363108         1.877026         2.065887
 C         1.626330         1.092106         1.870817
 C         2.559079         2.055158         1.229122
 C         1.617432         2.011713        -0.015744
 O         1.762351         2.362422        -1.280140
 C         1.186937         0.546273         0.480551
 C         0.718676        -0.724820        -0.166310
 H        -2.010548         1.558454         0.104582
 H        -1.190610         3.186670        -0.082053
 H        -0.838457         1.971984        -1.290948
 H         1.842997         0.521599         2.889158
 H         2.492897         3.134473         1.710744
 H         3.618848         1.748951         1.035466
 H         2.711692         2.653704        -1.358847
 H        -0.065274        -1.217729         0.495916
 H         0.097339        -0.379959        -1.173084
 H         1.455368        -1.423389        -0.439097
