19
Iteration:  4353charge 0 multiplicity 1
 C        -1.111114         2.334296        -0.010669
 C         0.192001         1.845792         0.682575
 O         0.405549         2.014997         2.123892
 C         1.548124         0.994390         1.865701
 C         2.607703         1.913562         1.127240
 C         1.623621         1.932362        -0.045450
 O         1.875912         2.236584        -1.304885
 C         0.945640         0.529096         0.563634
 C         0.880397        -0.747575        -0.342297
 H        -1.980080         1.822942         0.507525
 H        -1.126636         3.387011         0.378617
 H        -1.238874         2.443571        -1.165211
 H         1.803590         0.424885         2.728847
 H         3.037231         2.803648         1.631077
 H         3.493477         1.253682         0.814122
 H         1.691404         3.200345        -1.513141
 H        -0.110633        -1.207326        -0.019401
 H         0.602887        -0.117155        -1.260854
 H         1.788848        -1.301129        -0.309319
