19
Iteration:  2972charge 0 multiplicity 1
 C        -1.083391         2.139630        -0.086508
 C         0.148587         1.808452         0.654216
 O         0.430530         2.010313         2.020876
 C         1.507015         1.030835         1.894574
 C         2.572291         1.885912         1.265009
 C         1.596576         1.927288         0.029496
 O         1.817094         2.444456        -1.300346
 C         0.990199         0.607910         0.506466
 C         0.950800        -0.639745        -0.287913
 H        -1.924737         1.692512         0.463370
 H        -1.468880         3.177734        -0.002080
 H        -1.005092         1.857820        -1.136688
 H         1.515712         0.380028         2.818832
 H         2.899535         2.769179         1.777215
 H         3.494563         1.417427         1.029883
 H         2.064555         1.723508        -1.900391
 H         0.090692        -1.167852         0.095333
 H         0.931619        -0.642240        -1.320900
 H         1.951513        -1.226735        -0.073135
