19
Iteration:  1975charge 0 multiplicity 1
 C        -1.003569         2.274484        -0.071203
 C         0.192388         1.759259         0.598642
 O         0.397045         1.880746         2.126541
 C         1.525607         1.144431         1.944067
 C         2.474657         2.137075         1.196600
 C         1.642042         1.823833        -0.022083
 O         1.794108         2.290482        -1.308097
 C         1.059291         0.530573         0.518139
 C         0.869414        -0.654174        -0.283665
 H        -1.927946         1.957833         0.543083
 H        -1.095672         3.424498        -0.164726
 H        -1.058329         1.888061        -1.019519
 H         1.815664         0.616839         2.826573
 H         2.628625         3.196568         1.584983
 H         3.450564         1.602722         1.041786
 H         2.391254         1.768743        -1.879758
 H        -0.057324        -1.196702        -0.005973
 H         0.729365        -0.519018        -1.457304
 H         1.643185        -1.298367        -0.141755
