19
Iteration:  4104charge 0 multiplicity 1
 C        -1.104150         2.414225         0.068936
 C         0.188423         1.897396         0.654914
 O         0.415063         1.870323         2.091415
 C         1.515763         0.958009         1.857118
 C         2.519635         1.957465         1.129178
 C         1.533222         1.922663         0.050518
 O         1.945225         2.208006        -1.375384
 C         1.053086         0.593523         0.437655
 C         0.855186        -0.691873        -0.263921
 H        -1.886078         1.742111         0.326977
 H        -1.168312         3.418471         0.675885
 H        -1.032461         2.442780        -1.094977
 H         1.782968         0.388911         2.706067
 H         2.751994         2.849976         1.738453
 H         3.447282         1.421016         0.772257
 H         1.806939         3.203880        -1.459629
 H         0.154126        -1.197672         0.332452
 H         0.673492        -0.413696        -1.259116
 H         1.671961        -1.368074        -0.427652
