19
Iteration:  1217charge 0 multiplicity 1
 C        -1.036082         2.202538        -0.160661
 C         0.219796         1.776524         0.611979
 O         0.301862         2.034869         2.095960
 C         1.614527         1.091296         1.907872
 C         2.643079         2.012901         1.275300
 C         1.644432         1.951734         0.052760
 O         1.679285         2.374667        -1.320742
 C         1.017747         0.494590         0.532859
 C         0.873916        -0.754079        -0.258717
 H        -1.898596         1.614114        -0.224609
 H        -1.285636         3.199628         0.204562
 H        -0.692841         2.411334        -1.263156
 H         1.903039         0.436896         2.816510
 H         2.978080         2.910867         1.745112
 H         3.509498         1.413247         0.944424
 H         2.313028         1.793088        -1.730473
 H         0.166476        -1.414584         0.225193
 H         0.507919        -0.532749        -1.279271
 H         1.759142        -1.313828        -0.388722
