19
Iteration:   483charge 0 multiplicity 1
 C        -0.996694         2.332836        -0.184128
 C         0.162512         1.787408         0.674121
 O         0.288241         1.877574         2.095956
 C         1.566767         1.098562         1.914334
 C         2.571315         2.084145         1.232868
 C         1.623349         1.865122         0.043510
 O         1.692726         2.399817        -1.332874
 C         1.100755         0.541483         0.499738
 C         0.900870        -0.801188        -0.214191
 H        -2.047658         2.016161         0.088005
 H        -0.938696         3.415052        -0.061230
 H        -0.581688         2.000338        -1.128583
 H         2.035538         0.511823         2.820193
 H         2.787226         3.105472         1.472541
 H         3.497697         1.539791         1.010649
 H         2.474970         2.032810        -1.832620
 H         0.139999        -1.544301         0.163915
 H         0.749205        -0.572152        -1.236675
 H         1.724790        -1.472628        -0.111905
