19
Iteration:  3359
 C        -1.174133         2.152964         0.015544
 C         0.174193         1.941595         0.670237
 O         0.375929         2.032334         2.043603
 C         1.532825         1.042957         1.911304
 C         2.596189         1.978413         1.241752
 C         1.635353         1.937236        -0.005572
 O         1.939468         2.363865        -1.295179
 C         0.999239         0.590614         0.458605
 C         0.885071        -0.763217        -0.365985
 H        -1.876320         1.377258         0.608910
 H        -1.524299         3.210635         0.110116
 H        -1.213821         1.748597        -1.006856
 H         1.759424         0.575551         2.853512
 H         2.757254         2.921042         1.788964
 H         3.399886         1.291514         1.045643
 H         2.068587         1.589866        -1.908972
 H         0.032111        -1.327616         0.017969
 H         0.747002        -0.578070        -1.413996
 H         1.721179        -1.330942        -0.197312
