19
Iteration:   440charge 0 multiplicity 1
 C        -1.146079         2.297067        -0.066172
 C         0.203854         1.833729         0.588829
 O         0.321896         1.853631         1.994644
 C         1.603359         1.094965         1.902958
 C         2.549766         2.169308         1.275756
 C         1.644628         1.916336         0.015184
 O         1.854060         2.368257        -1.312787
 C         1.121690         0.576295         0.412353
 C         0.812932        -0.842224        -0.207758
 H        -1.909822         1.765803         0.633718
 H        -1.288697         3.415824        -0.035513
 H        -1.110523         1.873725        -1.083357
 H         1.636044         0.434295         2.901161
 H         2.746309         3.082238         1.972634
 H         3.622303         1.728985         1.272814
 H         2.572986         1.815742        -1.752353
 H         0.341866        -1.429511         0.606808
 H         0.131566        -0.698651        -1.018734
 H         1.657270        -1.708846        -0.486127
