19
Iteration:   540
 C        -1.160879         2.275326        -0.038263
 C         0.163523         1.906137         0.577075
 O         0.292536         1.907358         2.052830
 C         1.457470         1.062962         1.868216
 C         2.605210         1.922254         1.240383
 C         1.678244         1.930451        -0.002086
 O         1.826155         2.441748        -1.372370
 C         1.031406         0.620395         0.420576
 C         1.008053        -0.830975        -0.095420
 H        -1.786454         1.427982         0.347554
 H        -1.371903         3.304303         0.382058
 H        -1.292873         2.412543        -1.085870
 H         1.678434         0.432527         2.673232
 H         3.070535         2.884716         1.569151
 H         3.446693         1.184785         0.998794
 H         2.647506         2.092522        -1.740209
 H         0.106184        -1.243183         0.373963
 H         0.886772        -0.999207        -1.170901
 H         2.008268        -1.342977         0.097609
