19
Iteration:  4032
 C        -1.014841         2.382155        -0.105983
 C         0.219905         1.732853         0.625114
 O         0.446255         1.835155         2.075491
 C         1.587499         1.000881         1.847182
 C         2.612423         1.975052         1.195047
 C         1.607621         2.018596         0.016583
 O         1.758764         2.541572        -1.255479
 C         0.965437         0.526358         0.413578
 C         0.751879        -0.831697        -0.153967
 H        -2.149917         2.174052         0.146899
 H        -0.849376         3.391226         0.103214
 H        -1.023230         2.233235        -1.185732
 H         1.759879         0.252313         2.701162
 H         2.909639         2.914803         1.661046
 H         3.473728         1.393179         0.943876
 H         2.360894         1.876213        -1.713376
 H         0.217371        -1.290736         0.746300
 H         0.274329        -0.775969        -1.187511
 H         1.682328        -1.471442        -0.401689
