19
Iteration:  1802charge 0 multiplicity 1
 C        -1.066028         2.352415        -0.062530
 C         0.134183         1.768093         0.643092
 O         0.341802         1.802890         2.071487
 C         1.603392         1.134012         1.860253
 C         2.557981         2.136993         1.266803
 C         1.663501         1.908967         0.002180
 O         1.858247         2.258004        -1.342895
 C         1.126149         0.586465         0.400793
 C         0.762659        -0.713119        -0.192469
 H        -2.031220         1.657752         0.156233
 H        -1.338881         3.346505         0.296297
 H        -0.960465         2.386015        -1.046198
 H         1.906971         0.643424         2.790049
 H         2.446177         3.211290         1.528510
 H         3.546307         1.835794         1.305373
 H         2.430393         1.586953        -1.777602
 H        -0.031392        -1.225080         0.343056
 H         0.582231        -0.685244        -1.312052
 H         1.565792        -1.451721         0.021622
