19
Iteration:  2875
 C        -1.002472         2.359807        -0.121792
 C         0.189553         1.737209         0.612155
 O         0.299140         1.844393         2.091966
 C         1.524026         1.056710         1.882690
 C         2.554454         2.049659         1.253637
 C         1.629154         1.885725        -0.046247
 O         1.718729         2.478520        -1.322219
 C         1.120836         0.513559         0.447423
 C         0.935662        -0.760594        -0.171323
 H        -1.910942         1.773251         0.020827
 H        -1.233519         3.373982         0.289323
 H        -0.879450         2.486106        -1.182189
 H         1.846792         0.338830         2.761788
 H         2.771000         2.990775         1.905561
 H         3.571452         1.540357         1.318827
 H         2.366654         1.913341        -1.773038
 H         0.273053        -1.283987         0.544700
 H         0.326121        -0.667187        -1.110304
 H         1.858287        -1.365730        -0.389718
