19
Iteration:  3356
 C        -1.203829         2.143035        -0.003076
 C         0.198275         1.925590         0.680300
 O         0.400824         2.014411         2.046382
 C         1.561052         1.041958         1.919929
 C         2.556485         1.975150         1.249608
 C         1.616484         1.958512         0.020536
 O         1.953699         2.357979        -1.317225
 C         0.992754         0.591938         0.441926
 C         0.864114        -0.745810        -0.350919
 H        -1.828550         1.461627         0.570369
 H        -1.516970         3.187521         0.059222
 H        -1.238597         1.844579        -1.063573
 H         1.764533         0.619279         2.868536
 H         2.727201         2.954905         1.767937
 H         3.454116         1.327867         1.068992
 H         2.080540         1.603596        -1.886966
 H        -0.031812        -1.341935         0.095419
 H         0.842328        -0.490142        -1.422526
 H         1.752621        -1.428450        -0.239924
