19
Iteration:  2102charge 0 multiplicity 1
 C        -0.945271         2.226683        -0.101601
 C         0.231984         1.838030         0.629367
 O         0.325629         1.721850         2.091054
 C         1.544226         1.040800         1.876648
 C         2.532994         2.239241         1.300872
 C         1.705790         1.935136         0.014958
 O         1.773934         2.321401        -1.423398
 C         1.091101         0.633204         0.394374
 C         0.701518        -0.718206        -0.113491
 H        -1.650281         1.482677         0.194344
 H        -1.456817         3.212285         0.017039
 H        -0.877883         2.056291        -1.193072
 H         2.011282         0.425345         2.575055
 H         2.563876         3.117690         1.833238
 H         3.494822         1.798443         1.075637
 H         2.704938         2.600853        -1.640953
 H         0.241785        -1.219183         0.716036
 H         0.111980        -0.748663        -0.909829
 H         1.607962        -1.390994        -0.384062
