19
Iteration:  1868
 C        -1.083624         2.283053        -0.170922
 C         0.199783         1.762018         0.555293
 O         0.401471         2.039795         1.902608
 C         1.535121         1.040697         1.837068
 C         2.668905         1.884524         1.194414
 C         1.629773         1.875972         0.006706
 O         1.727038         2.608721        -1.177013
 C         1.000466         0.510506         0.558654
 C         0.872577        -0.878055        -0.009869
 H        -1.959173         1.502412        -0.054893
 H        -1.264944         3.203480         0.361172
 H        -0.909011         2.372253        -1.189993
 H         1.493054         0.431188         2.802169
 H         2.964449         2.932683         1.397974
 H         3.494997         1.331245         0.892975
 H         2.367342         2.163485        -1.753007
 H         0.245136        -1.609319         0.526891
 H         0.468513        -0.662970        -1.056233
 H         1.860632        -1.403292        -0.208391
