19
Iteration:  3128charge 0 multiplicity 1
 C        -1.020681         2.174195        -0.079834
 C         0.193956         1.808689         0.645664
 O         0.380380         2.011724         2.089433
 C         1.511576         1.025796         1.910031
 C         2.538961         1.933316         1.224559
 C         1.703168         1.941011         0.029361
 O         1.719509         2.344781        -1.304719
 C         1.010869         0.635071         0.468727
 C         0.929752        -0.611657        -0.287440
 H        -1.895109         1.506750         0.138544
 H        -1.189254         3.246361         0.049860
 H        -0.841781         1.966373        -1.185328
 H         1.614785         0.226484         2.694821
 H         2.670644         2.957856         1.666531
 H         3.429149         1.306938         1.129371
 H         2.143946         1.563158        -1.760014
 H         0.034995        -1.265972         0.034315
 H         0.790897        -0.428199        -1.343150
 H         1.925560        -1.279973         0.073528
