19
Iteration:  4688charge 0 multiplicity 1
 C        -1.049009         2.264493         0.024449
 C         0.262081         1.810873         0.705812
 O         0.377555         1.786359         2.134461
 C         1.623160         1.078369         1.843393
 C         2.573533         2.065213         1.213546
 C         1.608684         2.010487         0.042126
 O         1.949333         2.272399        -1.348414
 C         1.054294         0.593313         0.338275
 C         0.617194        -0.728473        -0.324648
 H        -1.962373         1.781387         0.548737
 H        -1.435158         3.366608         0.302009
 H        -1.076384         2.146383        -1.077319
 H         1.778171         0.438417         2.677367
 H         2.640127         3.135750         1.618243
 H         3.592349         1.695062         0.897233
 H         2.205255         3.217538        -1.530718
 H        -0.073574        -1.175504         0.448560
 H         0.092488        -0.850005        -1.287485
 H         1.436764        -1.468113        -0.307626
