19
Iteration:  3756charge 0 multiplicity 1
 C        -1.080994         2.068355        -0.083884
 C         0.242940         1.835386         0.662872
 O         0.281843         1.922453         2.099433
 C         1.592123         1.059824         1.915388
 C         2.676200         2.087933         1.230399
 C         1.697991         1.846158        -0.003029
 O         1.780528         2.385089        -1.321969
 C         1.075875         0.571609         0.508562
 C         0.714935        -0.606391        -0.281390
 H        -1.736255         1.403322         0.492006
 H        -1.273849         3.156659        -0.027058
 H        -1.045465         1.817010        -1.214216
 H         1.633698         0.408380         2.763972
 H         2.838523         3.094301         1.508127
 H         3.658962         1.579294         1.101086
 H         2.677658         2.313941        -1.688416
 H        -0.219924        -1.230415        -0.033515
 H         0.552331        -0.134023        -1.320071
 H         1.580384        -1.312585        -0.419338
