19
Iteration:  4848charge 0 multiplicity 1
 C        -1.016969         2.362848         0.048753
 C         0.188554         1.817693         0.703988
 O         0.429116         1.859697         2.088640
 C         1.517357         0.974083         1.872547
 C         2.583476         1.981672         1.120157
 C         1.600609         1.993117         0.017824
 O         1.821255         2.341738        -1.316641
 C         1.064481         0.575068         0.311066
 C         0.811780        -0.789990        -0.250877
 H        -1.920989         1.844538         0.467658
 H        -1.195901         3.455287         0.226022
 H        -0.824370         2.215089        -1.016504
 H         1.750705         0.315486         2.675194
 H         2.741226         3.010356         1.523822
 H         3.468888         1.399982         1.016530
 H         1.668976         3.329441        -1.304954
 H         0.208332        -1.275623         0.618944
 H         0.078969        -0.649722        -1.068216
 H         1.729174        -1.479744        -0.394191
