19
Iteration:   767charge 0 multiplicity 1
 C        -0.924611         2.174124        -0.135902
 C         0.215500         1.793185         0.588908
 O         0.325135         1.942947         2.058538
 C         1.517477         1.165811         1.966386
 C         2.560201         1.996556         1.163597
 C         1.609168         1.919685         0.002655
 O         1.687927         2.400653        -1.215687
 C         1.047653         0.539431         0.501780
 C         0.931322        -0.738399        -0.265192
 H        -1.792013         1.500124        -0.005869
 H        -1.191661         3.188031         0.243928
 H        -0.858872         2.384605        -1.195223
 H         1.680639         0.496835         2.967000
 H         2.792598         3.106071         1.491668
 H         3.483110         1.337757         1.097644
 H         2.275507         1.928742        -1.879099
 H         0.334718        -1.392301         0.390512
 H         0.396577        -0.529334        -1.158665
 H         1.879639        -1.348261        -0.317643
