19
Iteration:  1089charge 0 multiplicity 1
 C        -0.954592         2.257199        -0.170415
 C         0.276850         1.825672         0.582328
 O         0.332050         1.841008         2.027622
 C         1.527238         1.017870         1.875114
 C         2.574025         2.030910         1.106328
 C         1.612906         1.951888         0.007580
 O         1.682426         2.462161        -1.217384
 C         1.050199         0.533933         0.565807
 C         0.879053        -0.740550        -0.088766
 H        -1.945173         1.847417         0.111049
 H        -1.036011         3.356269        -0.202751
 H        -0.984412         2.012733        -1.179682
 H         1.838529         0.222985         2.625934
 H         2.625677         2.984063         1.633003
 H         3.536953         1.439750         0.925415
 H         2.535864         2.360949        -1.729447
 H        -0.061538        -1.212589         0.273394
 H         0.549529        -0.584588        -1.145607
 H         1.811496        -1.429092         0.176364
