19
Iteration:   858
 C        -1.111688         2.270513         0.087598
 C         0.187515         1.778093         0.593884
 O         0.294991         1.875151         2.002012
 C         1.518994         1.099801         1.862324
 C         2.470293         2.107652         1.217167
 C         1.656564         1.985483        -0.055602
 O         1.899352         2.436373        -1.300953
 C         1.185787         0.540593         0.363027
 C         0.870144        -0.886060        -0.158286
 H        -1.934245         1.832262         0.637561
 H        -1.089927         3.400147         0.064886
 H        -1.193734         1.936284        -1.063515
 H         1.758401         0.586758         2.755127
 H         2.489265         3.057343         1.722272
 H         3.472544         1.625454         1.175106
 H         2.654008         1.800488        -1.594404
 H         0.025263        -1.257673         0.536960
 H         0.472240        -0.756622        -1.221337
 H         1.603074        -1.587396        -0.174870
