19
Iteration:  2997
 C        -0.993063         2.233250        -0.177955
 C         0.209398         1.786766         0.618770
 O         0.336292         1.932029         2.106190
 C         1.570263         1.089815         1.887225
 C         2.577645         2.027405         1.151925
 C         1.646677         1.898604         0.042178
 O         1.745634         2.513768        -1.214881
 C         1.057605         0.507269         0.540426
 C         0.816102        -0.810033        -0.276881
 H        -1.827404         1.741073         0.285034
 H        -1.315124         3.230777        -0.128054
 H        -0.871771         1.920540        -1.249095
 H         1.675762         0.584820         2.960223
 H         2.934100         3.019284         1.604034
 H         3.536584         1.428691         1.079883
 H         2.295103         1.935160        -1.800567
 H         0.044655        -1.438323         0.202210
 H         0.558001        -0.662215        -1.291349
 H         1.736189        -1.311823        -0.361797
