19
Iteration:  4436
 C        -0.985407         2.352531        -0.030762
 C         0.221985         1.831441         0.615372
 O         0.368516         1.871394         2.130021
 C         1.613710         1.088488         1.851409
 C         2.621016         1.968002         1.120617
 C         1.623370         1.885803        -0.047787
 O         1.903700         2.454193        -1.254840
 C         1.025010         0.557532         0.416895
 C         0.636217        -0.885095        -0.187724
 H        -1.911971         1.833707         0.339923
 H        -1.194421         3.428754         0.144529
 H        -1.073922         2.179146        -1.069261
 H         1.809060         0.437275         2.712062
 H         2.873443         2.929573         1.581621
 H         3.495570         1.353821         1.016783
 H         1.462468         3.280754        -1.413416
 H         0.089638        -1.557795         0.527689
 H         0.135273        -0.839101        -1.145366
 H         1.594287        -1.471985        -0.570046
