19
Iteration:  2418
 C        -0.987950         2.213773        -0.168675
 C         0.210284         1.755476         0.600182
 O         0.351058         2.005180         2.012084
 C         1.576907         1.120002         1.961591
 C         2.640475         1.923449         1.190379
 C         1.572146         1.959330         0.049794
 O         1.594563         2.482994        -1.219941
 C         1.070312         0.472340         0.571710
 C         0.938489        -0.822970        -0.292748
 H        -1.858045         1.668784         0.058610
 H        -1.264625         3.300113        -0.009534
 H        -0.795101         2.108626        -1.207820
 H         1.667456         0.600385         2.783602
 H         2.805798         2.832819         1.781323
 H         3.588156         1.325587         0.944387
 H         2.497452         2.825382        -1.427503
 H         0.205087        -1.522599         0.173188
 H         0.558874        -0.648740        -1.320860
 H         1.903625        -1.384292        -0.408705
