19
Iteration:  1779charge 0 multiplicity 1
 C        -1.013309         2.179666         0.014444
 C         0.262016         1.857204         0.547539
 O         0.287751         1.997683         2.049705
 C         1.533586         1.070956         1.912714
 C         2.532294         2.053151         1.222900
 C         1.613730         1.908289        -0.014392
 O         1.899642         2.328387        -1.327541
 C         1.017539         0.547750         0.543317
 C         0.852177        -0.727140        -0.240846
 H        -1.881810         1.584887         0.532086
 H        -1.130233         3.253395         0.346107
 H        -1.157456         2.121817        -0.981791
 H         1.679226         0.439574         2.757554
 H         2.845206         3.060807         1.523550
 H         3.331584         1.551215         0.856358
 H         2.119770         1.607989        -1.918049
 H         0.059309        -1.393382         0.131076
 H         0.582610        -0.374113        -1.327301
 H         1.675632        -1.372170        -0.317252
