19
Iteration:  4857charge 0 multiplicity 1
 C        -1.043235         2.325867         0.004364
 C         0.179233         1.864157         0.656040
 O         0.422212         1.822278         2.121087
 C         1.584400         1.024204         1.774808
 C         2.635832         1.949008         1.161956
 C         1.616763         1.897213         0.002198
 O         1.832752         2.362088        -1.258777
 C         1.009699         0.623875         0.388769
 C         0.750608        -0.748816        -0.194500
 H        -1.950259         1.723109         0.282647
 H        -1.379726         3.385917         0.219273
 H        -0.940646         2.156328        -1.115040
 H         1.858663         0.445322         2.637894
 H         2.912385         2.948360         1.525170
 H         3.532752         1.472201         0.757168
 H         1.549244         3.304508        -1.380171
 H         0.199590        -1.411948         0.408728
 H         0.275211        -0.658928        -1.155552
 H         1.765397        -1.179263        -0.513985
