19
Iteration:  4865charge 0 multiplicity 1
 C        -1.129155         2.288329        -0.040377
 C         0.229111         1.872747         0.641170
 O         0.391574         1.821239         2.116656
 C         1.669987         1.036422         1.792168
 C         2.665391         1.941951         1.121902
 C         1.639831         1.894183        -0.015636
 O         1.847321         2.388139        -1.267011
 C         0.933200         0.595754         0.501793
 C         0.727295        -0.679536        -0.193083
 H        -1.849190         1.530594         0.176835
 H        -1.223857         3.365863         0.165719
 H        -1.042714         2.263963        -1.176862
 H         1.971834         0.251193         2.548053
 H         2.927049         2.743745         1.832162
 H         3.579188         1.366010         0.741616
 H         1.444930         3.295060        -1.330884
 H         0.242070        -1.447985         0.314592
 H         0.289481        -0.652469        -1.183321
 H         1.710758        -1.098286        -0.391172
