19
Iteration:   820
 C        -1.103621         2.177342        -0.001805
 C         0.180645         1.853036         0.627501
 O         0.307871         1.910865         2.040910
 C         1.520765         1.084326         1.849785
 C         2.506030         2.011567         1.137469
 C         1.610818         1.963420         0.009713
 O         1.889739         2.329770        -1.253341
 C         1.096176         0.607032         0.450252
 C         0.884891        -0.703618        -0.182351
 H        -1.902495         1.483392         0.367710
 H        -1.451407         3.199176        -0.010115
 H        -0.982841         2.056608        -1.055595
 H         1.821871         0.417188         2.729360
 H         2.716798         3.041580         1.615280
 H         3.508693         1.593603         0.965259
 H         2.739744         1.936290        -1.571634
 H         0.483600        -1.424733         0.539238
 H         0.380723        -0.589985        -1.143162
 H         1.866339        -1.107046        -0.738838
