19
Iteration:   935charge 0 multiplicity 1
 C        -1.045093         2.241801        -0.165571
 C         0.168747         1.768667         0.567193
 O         0.399923         1.901751         2.008801
 C         1.558380         1.108310         1.855459
 C         2.644814         1.967238         1.253267
 C         1.622345         1.926677         0.028978
 O         1.696285         2.444931        -1.220400
 C         0.940026         0.558445         0.566440
 C         0.934826        -0.736753        -0.181372
 H        -1.901903         1.616114         0.104595
 H        -1.361757         3.269388         0.079865
 H        -0.858474         2.249259        -1.305563
 H         1.642981         0.482270         2.696257
 H         2.938945         2.925376         1.629302
 H         3.608996         1.484471         0.937180
 H         2.305497         2.029173        -1.837855
 H         0.287290        -1.422221         0.385050
 H         0.745179        -0.643591        -1.285580
 H         1.854512        -1.176158        -0.122074
