19
Iteration:  2435charge 0 multiplicity 1
 C        -1.079363         2.287395        -0.093744
 C         0.189672         1.710768         0.582125
 O         0.355810         1.983989         1.974591
 C         1.511054         1.103613         1.892948
 C         2.595601         1.977790         1.201280
 C         1.672409         1.777984         0.024184
 O         1.649085         2.563951        -1.167412
 C         1.003543         0.502984         0.435385
 C         1.012572        -0.828603        -0.186178
 H        -1.979163         1.636362         0.111433
 H        -1.094090         3.308055         0.258703
 H        -0.873064         2.382910        -1.247340
 H         1.882481         0.671392         2.962098
 H         2.987444         2.959205         1.511105
 H         3.428734         1.331475         1.042315
 H         2.434735         2.221237        -1.625317
 H         0.436355        -1.598391         0.332342
 H         0.460833        -0.646388        -1.159370
 H         2.055975        -1.042343        -0.387874
