19
Iteration:  3197charge 0 multiplicity 1
 C        -1.089590         2.396595         0.008376
 C         0.171055         1.887620         0.567230
 O         0.287628         1.942862         1.994235
 C         1.561474         0.965198         1.928721
 C         2.550314         2.063775         1.280885
 C         1.628918         1.902402        -0.013680
 O         1.830067         2.377206        -1.357684
 C         1.065715         0.493755         0.473994
 C         0.929159        -0.866497        -0.206114
 H        -1.917443         1.991324         0.584776
 H        -1.046049         3.450757         0.127209
 H        -1.274992         2.132718        -0.969056
 H         1.928766         0.419645         2.766170
 H         2.384257         3.074909         1.724804
 H         3.602289         1.719133         1.159144
 H         2.657006         2.076798        -1.765669
 H         0.206560        -1.583024         0.225289
 H         0.465448        -0.657749        -1.264968
 H         1.997775        -1.488808        -0.266723
