19
Iteration:  2761charge 0 multiplicity 1
 C        -1.145383         2.168809        -0.002659
 C         0.158517         1.816397         0.580993
 O         0.304036         1.772937         2.097567
 C         1.572107         1.031891         1.839281
 C         2.460056         2.113114         1.202942
 C         1.705007         1.948544        -0.019299
 O         1.941797         2.364489        -1.337109
 C         1.086358         0.677986         0.454779
 C         0.827084        -0.657522        -0.205440
 H        -1.909680         1.642408         0.623406
 H        -1.181803         3.239791         0.063033
 H        -1.273651         1.929358        -1.124092
 H         1.908218         0.393037         2.687080
 H         2.429091         2.983772         1.910257
 H         3.486481         1.701884         1.261639
 H         2.770031         1.949503        -1.592826
 H        -0.034885        -1.185868         0.187439
 H         0.738993        -0.457849        -1.230244
 H         1.863558        -1.216133        -0.181591
