19
Iteration:  4518
 C        -1.092985         2.382206         0.119144
 C         0.145336         1.786633         0.630839
 O         0.401793         1.873314         2.120818
 C         1.580497         1.042107         1.855267
 C         2.527981         1.980158         1.195763
 C         1.634938         1.982312        -0.006613
 O         1.888329         2.180318        -1.356889
 C         1.048493         0.605418         0.438641
 C         0.807525        -0.685758        -0.339319
 H        -1.974824         1.872603         0.536808
 H        -1.099434         3.504062         0.158189
 H        -0.952989         2.193369        -1.044828
 H         1.981491         0.657450         2.855457
 H         2.807387         2.911132         1.760175
 H         3.400864         1.302294         0.896812
 H         2.154658         3.119243        -1.433087
 H        -0.053478        -1.232813         0.031879
 H         0.367478        -0.527918        -1.346959
 H         1.604707        -1.416242        -0.379311
