19
Iteration:   758charge 0 multiplicity 1
 C        -0.994109         2.243601        -0.134373
 C         0.216816         1.752558         0.650426
 O         0.293956         1.929805         2.061352
 C         1.527466         1.166438         1.939064
 C         2.579642         2.002472         1.180928
 C         1.610514         1.966938         0.067801
 O         1.709977         2.424019        -1.303594
 C         1.088614         0.555093         0.480817
 C         0.920441        -0.835607        -0.251037
 H        -1.838465         1.590649        -0.034274
 H        -1.292575         3.240082         0.275136
 H        -0.611329         2.261041        -1.193107
 H         1.910532         0.669924         2.911684
 H         2.729886         2.983036         1.635915
 H         3.524558         1.486198         0.999462
 H         2.409832         1.801454        -1.667081
 H         0.144643        -1.466821         0.268099
 H         0.459070        -0.723474        -1.205490
 H         1.796280        -1.345239        -0.332758
