19
Iteration:  1751charge 0 multiplicity 1
 C        -1.281113         2.153866        -0.012953
 C         0.121077         1.916141         0.614070
 O         0.421508         2.085153         2.007864
 C         1.503970         1.130661         1.926930
 C         2.672179         1.854104         1.253573
 C         1.693907         1.868359         0.010630
 O         1.850591         2.367808        -1.253919
 C         0.957824         0.619000         0.467769
 C         0.947165        -0.732797        -0.258093
 H        -2.143959         1.579933         0.311680
 H        -1.379114         3.216465        -0.198283
 H        -1.020461         1.660282        -1.156859
 H         1.623305         0.538038         2.880742
 H         3.195978         2.823953         1.525115
 H         3.401611         1.022175         0.766640
 H         2.493264         1.910471        -1.789801
 H         0.326049        -1.440541         0.326451
 H         0.481278        -0.624803        -1.233608
 H         1.982225        -1.260368        -0.527842
