19
Iteration:  1987
 C        -1.059132         2.268370        -0.093518
 C         0.175190         1.811469         0.663863
 O         0.323200         1.923874         2.070673
 C         1.574756         1.082324         1.884835
 C         2.618117         2.016476         1.176145
 C         1.562575         1.977420         0.070533
 O         1.750100         2.297212        -1.316615
 C         1.072027         0.596652         0.499928
 C         0.908472        -0.735720        -0.240557
 H        -2.079797         1.865250         0.258952
 H        -1.023673         3.375295        -0.198840
 H        -0.921885         1.878858        -1.084835
 H         1.875288         0.457469         2.772827
 H         2.866975         2.998768         1.686758
 H         3.530013         1.500419         0.875620
 H         2.456642         1.635944        -1.538076
 H        -0.014748        -1.252473         0.083364
 H         0.902134        -0.453496        -1.380158
 H         1.700780        -1.374271        -0.088231
