19
Iteration:  3692charge 0 multiplicity 1
 C        -1.015838         2.300651        -0.000021
 C         0.182344         1.841607         0.624151
 O         0.339217         1.786524         2.072358
 C         1.563028         1.062250         1.887673
 C         2.496318         2.015757         1.119854
 C         1.559978         1.868406        -0.072724
 O         1.903142         2.470518        -1.249077
 C         1.006096         0.656802         0.374524
 C         0.875449        -0.788389        -0.110965
 H        -1.911625         1.606070         0.117019
 H        -1.445608         3.193554         0.281715
 H        -0.887042         2.456478        -1.141561
 H         1.890857         0.508318         2.749265
 H         2.674407         3.014267         1.431056
 H         3.461885         1.481677         0.921907
 H         2.468053         1.989027        -1.844582
 H         0.133495        -1.396834         0.464607
 H         0.467811        -0.921833        -1.155236
 H         1.956027        -1.155839         0.117601
