19
Iteration:   776
 C        -0.983349         2.167483        -0.164000
 C         0.269204         1.796397         0.576047
 O         0.339757         1.975516         2.017548
 C         1.506590         1.091298         1.932751
 C         2.552846         2.033056         1.197841
 C         1.636246         1.764744         0.007678
 O         1.669224         2.424241        -1.211603
 C         1.036693         0.556600         0.555397
 C         0.912584        -0.636328        -0.191535
 H        -1.777682         1.397671         0.103047
 H        -1.329804         3.118874         0.239515
 H        -0.815138         2.290295        -1.208160
 H         1.680322         0.481726         2.898539
 H         3.051853         3.002219         1.604378
 H         3.451175         1.357895         0.973562
 H         2.229109         1.931596        -1.887545
 H         0.384936        -1.437231         0.305655
 H         0.505572        -0.466358        -1.218818
 H         1.993239        -0.976598        -0.685756
