19
Iteration:  2044charge 0 multiplicity 1
 C        -1.075352         2.312801        -0.022782
 C         0.193342         1.785107         0.582284
 O         0.299404         2.072432         1.961897
 C         1.531527         1.086998         1.845645
 C         2.587585         1.950127         1.150174
 C         1.602952         1.867115        -0.027210
 O         1.809335         2.553510        -1.233080
 C         0.960372         0.463280         0.511136
 C         0.983758        -0.954563        -0.118502
 H        -1.910571         1.585993         0.135289
 H        -1.314274         3.146846         0.550539
 H        -0.937648         2.624206        -1.168909
 H         2.022719         0.418599         2.712695
 H         2.791677         2.913211         1.689087
 H         3.514926         1.520767         0.834049
 H         2.352545         1.904720        -1.675938
 H         0.413868        -1.708013         0.444846
 H         0.586203        -0.969386        -1.162865
 H         2.017901        -1.200550        -0.088320
