19
Iteration:  4173charge 0 multiplicity 1
 C        -1.104639         2.316994         0.040871
 C         0.201457         1.804124         0.665403
 O         0.391144         1.951507         2.047693
 C         1.590025         1.020662         1.816648
 C         2.633034         1.913659         1.148771
 C         1.687091         1.893191        -0.001772
 O         1.967258         2.335266        -1.247260
 C         0.944727         0.586452         0.481626
 C         0.704548        -0.679364        -0.280431
 H        -1.947060         1.615241         0.424944
 H        -1.334398         3.349403         0.217647
 H        -0.979206         1.913481        -0.946193
 H         1.688909         0.463196         2.790968
 H         2.865440         2.928264         1.620640
 H         3.568415         1.521111         0.719480
 H         1.183457         2.843798        -1.546365
 H        -0.032771        -1.322871         0.134298
 H         0.507073        -0.446633        -1.287131
 H         1.579061        -1.354142        -0.403247
