19
Iteration:  2451
 C        -1.048056         2.334176        -0.022078
 C         0.186611         1.812001         0.575120
 O         0.292289         1.881994         2.036359
 C         1.475041         1.040466         1.877067
 C         2.533025         1.961884         1.129798
 C         1.587591         1.916945        -0.032926
 O         1.809679         2.527347        -1.257209
 C         1.047135         0.554742         0.485701
 C         1.049544        -0.847974        -0.140693
 H        -1.844097         1.650445         0.243453
 H        -1.264951         3.350840         0.435668
 H        -0.992317         2.412212        -1.056135
 H         1.595683         0.394791         2.638334
 H         2.610766         2.952287         1.597378
 H         3.582595         1.539791         1.014225
 H         2.170747         2.045158        -1.996032
 H         0.659471        -1.572890         0.607684
 H         0.495558        -0.986073        -1.087239
 H         2.074814        -1.226568        -0.344839
