19
Iteration:  2944charge 0 multiplicity 1
 C        -1.173743         2.245545         0.075803
 C         0.128393         1.936372         0.643165
 O         0.254152         1.870020         2.039040
 C         1.513462         1.119917         1.833936
 C         2.616706         1.961070         1.217892
 C         1.657964         1.952140         0.036552
 O         1.894266         2.269522        -1.347660
 C         1.004524         0.643794         0.477534
 C         1.018970        -0.689514        -0.306430
 H        -1.864808         1.567781         0.667839
 H        -1.523319         3.262921         0.219587
 H        -1.295617         2.006385        -1.024938
 H         1.559762         0.461129         2.800315
 H         3.027423         2.941432         1.707638
 H         3.549906         1.294868         1.000809
 H         2.742820         1.819803        -1.585733
 H         0.113964        -1.324618        -0.014864
 H         0.939900        -0.625936        -1.500915
 H         1.870860        -1.292844        -0.092687
