19
Iteration:   678
 C        -1.150426         2.247817        -0.068157
 C         0.168572         1.763893         0.570779
 O         0.351766         1.949606         1.954118
 C         1.569230         1.104213         1.879902
 C         2.521196         1.978879         1.174773
 C         1.593730         1.879875        -0.048690
 O         1.846418         2.533873        -1.207943
 C         1.071712         0.516088         0.501685
 C         0.918686        -0.796726        -0.097252
 H        -1.989825         1.689884         0.485224
 H        -1.095136         3.343097         0.041666
 H        -1.128151         2.043876        -1.128869
 H         1.721686         0.334274         2.843448
 H         2.978438         2.964822         1.603059
 H         3.427191         1.433560         0.779422
 H         2.533064         2.104884        -1.789760
 H         0.144181        -1.348758         0.378574
 H         0.805773        -0.830478        -1.161387
 H         1.810477        -1.420111         0.035349
