19
Iteration:  2542
 C        -1.054655         2.113343        -0.115367
 C         0.174380         1.798962         0.610058
 O         0.383760         2.001346         2.007827
 C         1.545582         1.079560         1.870852
 C         2.626264         2.011042         1.250664
 C         1.603894         1.847736         0.016675
 O         1.688607         2.396361        -1.173286
 C         1.096400         0.557101         0.531656
 C         0.863653        -0.655890        -0.312735
 H        -1.926640         1.488961         0.245610
 H        -1.369775         3.100105         0.060908
 H        -1.004482         2.018558        -1.235536
 H         1.832563         0.488768         2.885906
 H         2.849220         3.095311         1.662919
 H         3.635383         1.490418         1.092575
 H         2.525343         2.399531        -1.671061
 H         0.095588        -1.361986        -0.038172
 H         0.824287        -0.291102        -1.287874
 H         1.803185        -1.440984        -0.301499
