19
Iteration:  1062
 C        -1.025202         2.208426        -0.181095
 C         0.211835         1.749821         0.638895
 O         0.378879         2.033933         2.097983
 C         1.510167         1.159916         2.007647
 C         2.645136         1.868849         1.222716
 C         1.640551         1.902170        -0.009283
 O         1.634819         2.527772        -1.264485
 C         1.067097         0.524660         0.423328
 C         0.920542        -0.829332        -0.242493
 H        -2.023550         1.767809        -0.012368
 H        -1.236373         3.285186        -0.252767
 H        -0.843659         1.832105        -1.275084
 H         1.781890         0.531579         2.821855
 H         2.867774         2.809024         1.797565
 H         3.503299         1.265830         1.089747
 H         2.444591         2.355431        -1.841837
 H         0.044799        -1.221786         0.270334
 H         0.576664        -0.833413        -1.243631
 H         1.714847        -1.413298        -0.017734
