19
Iteration:  4903
 C        -1.009474         2.094416         0.072230
 C         0.253540         1.875297         0.656338
 O         0.427898         2.021260         2.064910
 C         1.603179         1.082585         1.856467
 C         2.619328         1.879953         1.144961
 C         1.635325         1.908420         0.006614
 O         1.839998         2.401458        -1.200483
 C         1.030737         0.597575         0.366182
 C         0.654329        -0.715582        -0.377898
 H        -1.864660         1.324751         0.302986
 H        -1.583744         2.975316         0.436497
 H        -0.931238         2.100785        -1.043616
 H         1.829124         0.425941         2.676521
 H         3.074940         2.789458         1.702244
 H         3.450456         1.174054         1.098730
 H         1.284395         3.214944        -1.259210
 H        -0.174474        -1.021422         0.348111
 H         0.301933        -0.681860        -1.446585
 H         1.591133        -1.363559        -0.364051
