19
Iteration:   753
 C        -1.032180         2.287537        -0.128316
 C         0.190565         1.745908         0.667060
 O         0.283797         1.916929         2.060109
 C         1.560142         1.124636         1.914361
 C         2.583084         2.053130         1.220947
 C         1.606811         1.955046         0.048029
 O         1.734134         2.430471        -1.341060
 C         1.105250         0.540363         0.473474
 C         0.873649        -0.852028        -0.197537
 H        -1.909963         1.571128        -0.037982
 H        -1.343312         3.279833         0.164103
 H        -0.591420         2.275758        -1.101576
 H         1.934016         0.700220         2.847382
 H         2.879429         3.013619         1.821508
 H         3.549450         1.549273         0.921034
 H         2.445283         1.823632        -1.575872
 H         0.138127        -1.471418         0.267751
 H         0.692516        -0.776098        -1.348828
 H         1.955674        -1.404045        -0.452810
