19
Iteration:  3035charge 0 multiplicity 1
 C        -1.035817         2.346805        -0.169387
 C         0.197766         1.755760         0.571088
 O         0.333532         1.752128         2.081764
 C         1.568211         1.030475         1.865798
 C         2.540687         2.099117         1.316207
 C         1.680093         1.973768        -0.006251
 O         1.793759         2.494659        -1.404821
 C         1.142377         0.539981         0.429278
 C         0.765107        -0.857893        -0.044192
 H        -1.973012         1.804903         0.195843
 H        -1.078303         3.463611         0.182075
 H        -1.052740         2.306882        -1.232881
 H         1.984846         0.289184         2.427632
 H         2.528804         3.047151         1.851879
 H         3.619991         1.792534         1.186769
 H         2.674680         2.818562        -1.569409
 H         0.181504        -1.359649         0.746326
 H        -0.102803        -0.768578        -0.832711
 H         1.575248        -1.633881        -0.359701
