19
Iteration:  2680
 C        -1.047105         2.341966        -0.119806
 C         0.130344         1.800953         0.589150
 O         0.343684         1.913419         2.113150
 C         1.553917         1.093704         1.880696
 C         2.581443         1.958852         1.212485
 C         1.566628         1.950213         0.053754
 O         1.704672         2.377205        -1.287104
 C         0.990148         0.600920         0.437524
 C         1.097390        -0.836949        -0.235250
 H        -1.888592         1.593138        -0.057158
 H        -1.436818         3.280924         0.428867
 H        -0.762065         2.471531        -1.148136
 H         1.560515         0.334968         2.685456
 H         2.777774         2.872113         1.656275
 H         3.448439         1.391785         0.945272
 H         2.633184         2.474453        -1.519592
 H         0.550962        -1.550700         0.457939
 H         0.518219        -0.817638        -1.274747
 H         2.038668        -1.243652        -0.229335
