19
Iteration:  3777
 C        -1.127372         2.101180        -0.080351
 C         0.140296         1.787337         0.643071
 O         0.449275         1.944555         2.109168
 C         1.587896         1.097433         1.921234
 C         2.562570         1.939029         1.181955
 C         1.560006         2.048135        -0.010398
 O         1.867048         2.377053        -1.293698
 C         1.011322         0.592416         0.501356
 C         0.792519        -0.697055        -0.294792
 H        -1.876395         1.414541         0.261213
 H        -1.259234         3.221891        -0.135677
 H        -0.869891         1.743280        -1.124851
 H         1.926969         0.644838         2.845341
 H         2.921427         2.853930         1.652201
 H         3.447596         1.308473         0.924392
 H         2.808074         2.696631        -1.309054
 H         0.007665        -1.291989         0.238214
 H         0.583861        -0.464564        -1.343703
 H         1.614021        -1.321139        -0.413965
