19
Iteration:  2442charge 0 multiplicity 1
 C        -1.061314         2.299419        -0.044843
 C         0.201757         1.753923         0.537954
 O         0.339576         1.934749         2.016304
 C         1.465899         1.112406         1.906310
 C         2.574439         1.983937         1.147615
 C         1.655015         1.812114        -0.030575
 O         1.714567         2.556710        -1.182797
 C         1.035157         0.493096         0.471144
 C         1.009981        -0.803223        -0.177464
 H        -2.025763         1.780627         0.111767
 H        -1.264745         3.320046         0.305091
 H        -0.921643         2.394165        -1.062821
 H         1.605339         0.362683         2.749490
 H         2.758430         3.000269         1.573670
 H         3.494816         1.338679         0.963521
 H         2.306807         2.081394        -1.773853
 H         0.606079        -1.566784         0.502974
 H         0.541283        -0.897344        -1.109956
 H         2.150502        -1.120506        -0.333228
