19
Iteration:  4100
 C        -1.090792         2.421524         0.063095
 C         0.141291         1.896647         0.679589
 O         0.397413         1.895875         2.060059
 C         1.547906         0.937679         1.855124
 C         2.529306         1.931026         1.142748
 C         1.536214         1.935481         0.002400
 O         1.911065         2.234826        -1.358853
 C         1.079544         0.596285         0.456630
 C         0.881275        -0.695814        -0.253245
 H        -1.927133         1.754030         0.338499
 H        -1.106686         3.330555         0.647203
 H        -0.868724         2.392293        -0.972876
 H         1.754457         0.352808         2.789088
 H         2.774003         2.817534         1.695287
 H         3.388037         1.381003         0.858235
 H         2.001289         3.180178        -1.499284
 H         0.073169        -1.256356         0.326486
 H         0.534428        -0.491703        -1.340095
 H         1.643898        -1.463402        -0.438813
