19
Iteration:  2353charge 0 multiplicity 1
 C        -1.128072         2.100412         0.110217
 C         0.229832         1.706262         0.511987
 O         0.305891         1.838719         1.969295
 C         1.579555         1.108949         1.865669
 C         2.473511         2.125895         1.254250
 C         1.632048         2.014303        -0.016837
 O         1.990584         2.488805        -1.297577
 C         1.186495         0.537778         0.418415
 C         0.719855        -0.718520        -0.210135
 H        -1.845898         1.678950         0.741660
 H        -1.245010         3.191581         0.231435
 H        -1.339003         1.825777        -0.857004
 H         1.876479         0.595080         2.703076
 H         2.363370         3.080461         1.760872
 H         3.560476         1.859995         1.079933
 H         2.477455         1.720258        -1.608700
 H        -0.192825        -1.058290         0.279629
 H         0.597859        -0.639428        -1.257714
 H         1.388343        -1.621103        -0.049134
