19
Iteration:  2835
 C        -1.055702         2.204822        -0.235358
 C         0.179233         1.851306         0.589351
 O         0.342099         1.912000         2.135735
 C         1.529665         1.061252         1.812247
 C         2.620405         1.920802         1.176688
 C         1.666429         1.919695         0.066220
 O         1.750842         2.628395        -1.185328
 C         1.034009         0.606315         0.417940
 C         0.866937        -0.895958        -0.098918
 H        -1.873866         1.481672         0.079993
 H        -1.494401         3.183393        -0.111116
 H        -0.590439         1.939990        -1.255887
 H         1.896693         0.329720         2.626753
 H         2.918842         2.898132         1.514565
 H         3.506968         1.302958         0.909064
 H         2.359093         2.190916        -1.830594
 H         0.231904        -1.435128         0.660951
 H         0.344074        -0.896790        -1.183824
 H         1.812506        -1.275795        -0.362079
