19
Iteration:  3642charge 0 multiplicity 1
 C        -1.039708         2.391477        -0.010730
 C         0.232571         1.854917         0.569648
 O         0.361829         1.982327         1.925965
 C         1.466792         0.977656         1.840518
 C         2.586885         1.898889         1.193786
 C         1.660038         1.819366         0.012402
 O         1.630618         2.504483        -1.204051
 C         1.059843         0.526276         0.440358
 C         1.029054        -0.856805        -0.147421
 H        -1.875191         1.722575         0.249812
 H        -1.307201         3.596595         0.193258
 H        -1.060440         2.496093        -1.110715
 H         1.534422         0.542429         2.869595
 H         2.631904         2.928231         1.671193
 H         3.523733         1.354386         1.057882
 H         2.485786         2.313256        -1.675652
 H         0.552883        -1.470865         0.695089
 H         0.352174        -1.000105        -0.982817
 H         2.027444        -1.240174        -0.323263
