19
Iteration:   477charge 0 multiplicity 1
 C        -0.924222         2.297324        -0.156289
 C         0.166321         1.760752         0.694346
 O         0.288262         1.833848         2.075156
 C         1.580642         1.083602         1.927942
 C         2.546604         2.102984         1.232875
 C         1.648998         1.878652        -0.010798
 O         1.692871         2.377950        -1.352645
 C         1.058242         0.557807         0.502665
 C         0.896562        -0.722756        -0.184157
 H        -1.948534         2.035582         0.114216
 H        -0.939434         3.429355        -0.054373
 H        -0.830452         2.045059        -1.248708
 H         1.788320         0.504043         2.747747
 H         2.702825         3.193383         1.623247
 H         3.483138         1.491334         1.052149
 H         2.501524         2.020862        -1.780072
 H         0.069389        -1.275094         0.288285
 H         0.594032        -0.588672        -1.284840
 H         1.890379        -1.378061        -0.109974
