19
Iteration:  2616charge 0 multiplicity 1
 C        -1.138493         2.279614         0.018364
 C         0.220588         1.771583         0.527250
 O         0.318144         1.831914         1.945361
 C         1.574647         1.122303         1.895126
 C         2.502138         2.103917         1.243952
 C         1.676338         1.918520        -0.047173
 O         1.856896         2.546690        -1.259175
 C         1.128516         0.496854         0.448779
 C         0.856577        -0.902230        -0.138921
 H        -1.906100         1.647885         0.569528
 H        -1.229139         3.389842         0.174663
 H        -1.322272         2.146726        -1.036472
 H         1.895738         0.397889         2.647233
 H         2.410610         3.054345         1.786428
 H         3.593412         1.936166         1.162532
 H         2.495370         1.996760        -1.787533
 H         0.136749        -1.384288         0.576578
 H         0.363292        -0.677180        -1.128233
 H         1.616780        -1.678556        -0.334912
