19
Iteration:  1748
 C        -1.271441         2.157691        -0.059225
 C         0.120451         1.939454         0.632701
 O         0.410054         2.091869         2.030682
 C         1.496570         1.110869         1.907321
 C         2.703838         1.846399         1.266034
 C         1.660202         1.871479         0.013183
 O         1.845924         2.366269        -1.264842
 C         0.979887         0.621280         0.467183
 C         0.938797        -0.745627        -0.259617
 H        -2.144002         1.525808         0.391833
 H        -1.398450         3.196604        -0.205531
 H        -1.138149         1.704523        -0.989132
 H         1.665275         0.544707         2.800118
 H         3.263732         2.794648         1.423076
 H         3.325267         1.083835         0.842865
 H         2.619700         1.975872        -1.752466
 H         0.386178        -1.472370         0.319990
 H         0.508245        -0.737375        -1.192075
 H         1.969859        -1.180029        -0.513992
