19
Iteration:   119
 C        -1.101182         2.181246        -0.054370
 C         0.274909         1.884236         0.612032
 O         0.330961         2.024365         2.004004
 C         1.479207         1.069129         1.812166
 C         2.602215         1.872845         1.129393
 C         1.657169         2.008497         0.027940
 O         1.767031         2.476640        -1.287281
 C         1.003941         0.554939         0.478181
 C         0.904966        -0.831781        -0.063689
 H        -1.797509         1.452887         0.370697
 H        -1.501240         3.129722         0.277302
 H        -0.932621         2.084823        -1.075870
 H         1.549911         0.313351         2.709733
 H         3.068078         2.783996         1.668698
 H         3.432701         1.131351         0.858484
 H         2.639871         2.312104        -1.757240
 H         0.066943        -1.374009         0.234484
 H         0.865937        -0.826212        -1.192543
 H         1.874468        -1.508246         0.119566
