19
Iteration:   981
 C        -1.169393         2.253158         0.049128
 C         0.174798         1.775229         0.560117
 O         0.282165         1.853766         1.955747
 C         1.561465         1.067286         1.901976
 C         2.572972         2.154902         1.232779
 C         1.660362         1.929613         0.006581
 O         1.918649         2.280297        -1.294691
 C         1.013328         0.581617         0.413241
 C         0.866509        -0.708192        -0.195197
 H        -2.029927         1.636311         0.622291
 H        -1.254725         3.281063         0.537403
 H        -1.241618         2.417028        -1.020936
 H         1.961283         0.521798         2.805776
 H         2.719618         3.151584         1.684302
 H         3.636711         1.762639         1.137499
 H         2.779076         1.852248        -1.562671
 H         0.510198        -1.535967         0.410437
 H         0.457584        -0.564368        -1.294311
 H         1.778586        -0.945602        -0.544266
