19
Iteration:  2478charge 0 multiplicity 1
 C        -1.199040         2.402633         0.068831
 C         0.097329         1.767424         0.581072
 O         0.319369         1.688646         2.045591
 C         1.530498         1.058575         1.754993
 C         2.525970         2.096055         1.250156
 C         1.601443         2.061995        -0.019173
 O         1.953753         2.371019        -1.332931
 C         1.069660         0.684369         0.346788
 C         0.991165        -0.814834        -0.090512
 H        -2.096952         1.725565         0.191391
 H        -1.212956         3.402568         0.432638
 H        -0.988472         2.495714        -1.071098
 H         1.776486         0.102240         2.494399
 H         2.671402         2.990136         1.908741
 H         3.514256         1.697515         1.079931
 H         2.099009         1.627691        -1.907679
 H         0.620768        -1.312977         0.816092
 H         0.434528        -1.240460        -0.948593
 H         2.101858        -1.144570        -0.128230
