19
Iteration:  3221charge 0 multiplicity 1
 C        -1.070372         2.348666        -0.022227
 C         0.154016         1.793809         0.539352
 O         0.320827         1.892094         1.983256
 C         1.514988         1.061026         1.861938
 C         2.584722         1.922655         1.175852
 C         1.599270         1.949594        -0.005383
 O         1.837733         2.481626        -1.208379
 C         1.014613         0.601343         0.349639
 C         0.946477        -0.800461        -0.038367
 H        -1.932835         1.861952         0.286241
 H        -1.121815         3.436241         0.111569
 H        -1.027018         2.117088        -1.092701
 H         1.721953         0.160669         2.564151
 H         2.889907         2.951075         1.542867
 H         3.386553         1.110966         0.960572
 H         2.453688         1.996925        -1.749463
 H         0.503305        -1.484233         0.726168
 H         0.288938        -1.075584        -0.984465
 H         2.066092        -1.193632        -0.111353
