19
Iteration:   987
 C        -1.247306         2.269300         0.045211
 C         0.125726         1.767658         0.570869
 O         0.283740         1.841860         1.964823
 C         1.599924         1.040224         1.860697
 C         2.587886         2.112197         1.240039
 C         1.706465         1.929756         0.021799
 O         1.938102         2.265313        -1.304224
 C         1.054431         0.624253         0.455361
 C         0.875495        -0.680394        -0.213413
 H        -2.061024         1.816001         0.443615
 H        -1.329053         3.247280         0.460314
 H        -1.426117         2.391240        -1.054357
 H         1.894095         0.625275         2.798672
 H         2.545535         3.173360         1.563809
 H         3.631771         1.816109         1.225054
 H         2.752842         1.940816        -1.651253
 H         0.421833        -1.456097         0.446644
 H         0.278652        -0.546123        -1.062778
 H         2.005398        -1.116096        -0.529210
