19
Iteration:  4446charge 0 multiplicity 1
 C        -1.060182         2.292786        -0.080255
 C         0.232261         1.811814         0.623851
 O         0.393382         1.940072         2.062399
 C         1.579200         1.003636         1.801848
 C         2.625997         1.898396         1.115143
 C         1.673540         1.900668        -0.030616
 O         1.885394         2.473622        -1.257873
 C         1.001249         0.567267         0.512401
 C         0.689552        -0.796912        -0.135469
 H        -1.813594         1.717652         0.482140
 H        -0.904419         3.330624         0.319341
 H        -1.081889         2.404939        -1.104031
 H         1.744468         0.339442         2.701386
 H         2.854512         2.854895         1.586974
 H         3.468046         1.275860         1.003159
 H         1.241127         3.175498        -1.323956
 H         0.069304        -1.705997         0.318034
 H         0.019958        -0.481710        -0.978634
 H         1.748016        -1.293202        -0.579133
