19
Iteration:  2650charge 0 multiplicity 1
 C        -1.071115         2.379646         0.017257
 C         0.168318         1.781782         0.531908
 O         0.271570         1.732516         2.020954
 C         1.574592         1.087348         1.839301
 C         2.485838         2.063393         1.167618
 C         1.577979         1.927360        -0.036960
 O         1.879154         2.420249        -1.314075
 C         1.048022         0.589492         0.440850
 C         0.983620        -0.794743        -0.068664
 H        -1.986349         1.760889         0.329696
 H        -1.273834         3.338182         0.511600
 H        -1.037073         2.442305        -1.112021
 H         1.875829         0.280139         2.656025
 H         2.418497         3.070623         1.679157
 H         3.517688         1.629154         0.972431
 H         2.844318         2.543698        -1.463317
 H         0.382996        -1.401105         0.630993
 H         0.313358        -0.880532        -0.921076
 H         2.017219        -1.273109        -0.314048
