19
Iteration:   341charge 0 multiplicity 1
 C        -0.915618         2.316090        -0.096940
 C         0.264534         1.723178         0.557264
 O         0.299443         1.843878         2.126899
 C         1.537566         1.160382         1.916317
 C         2.500154         2.151037         1.204048
 C         1.633434         1.882711        -0.017428
 O         1.735367         2.417457        -1.327669
 C         1.072555         0.490792         0.498955
 C         0.818890        -0.796941        -0.194520
 H        -1.797233         1.674506         0.207987
 H        -1.164295         3.338361         0.239701
 H        -0.698823         2.287796        -1.203823
 H         2.000260         0.577441         2.764470
 H         2.696526         3.263632         1.597203
 H         3.531794         1.651418         0.956776
 H         2.339299         1.770532        -1.785386
 H         0.019552        -1.319611         0.192645
 H         0.679684        -0.554348        -1.219048
 H         1.586811        -1.627483         0.034380
