19
Iteration:   529charge 0 multiplicity 1
 C        -1.107375         2.283643        -0.036270
 C         0.198207         1.807778         0.598333
 O         0.304246         1.973448         2.033545
 C         1.443773         1.080086         1.847100
 C         2.606886         1.864996         1.174986
 C         1.681384         1.901983        -0.052222
 O         1.777248         2.468937        -1.330496
 C         1.018432         0.582298         0.463100
 C         1.028612        -0.763023        -0.084698
 H        -2.024921         1.654454         0.271565
 H        -1.509622         3.247228         0.417630
 H        -0.967620         2.220346        -1.089949
 H         1.507172         0.399627         2.657680
 H         2.702320         2.789646         1.838408
 H         3.587758         1.276726         1.111751
 H         2.620966         2.167961        -1.783269
 H         0.252178        -1.479902         0.244225
 H         0.923149        -0.618287        -1.162145
 H         1.856810        -1.449787         0.297687
