19
Iteration:  4023
 C        -1.073222         2.420109        -0.104769
 C         0.209185         1.821369         0.589402
 O         0.407487         1.791614         2.065531
 C         1.598091         1.013102         1.861761
 C         2.614533         1.994971         1.161785
 C         1.652882         1.966218         0.065406
 O         1.795674         2.542688        -1.240817
 C         1.050573         0.504233         0.405336
 C         0.722045        -0.839947        -0.143815
 H        -1.974339         1.985330         0.396641
 H        -1.015156         3.518687        -0.047701
 H        -0.892246         2.076623        -1.082767
 H         1.954793         0.291055         2.671958
 H         2.739860         2.942755         1.650718
 H         3.519594         1.522953         0.886881
 H         2.001011         1.766359        -1.816139
 H         0.093199        -1.476533         0.479619
 H         0.115864        -0.811973        -1.070974
 H         1.616306        -1.348865        -0.299516
