19
Iteration:   960
 C        -1.045439         2.241122        -0.006984
 C         0.214144         1.841635         0.658580
 O         0.304396         1.980581         2.073296
 C         1.477154         1.081106         1.881066
 C         2.453006         1.985324         1.191156
 C         1.616899         1.960528        -0.014171
 O         1.850426         2.375682        -1.321723
 C         1.119979         0.534992         0.485285
 C         0.965750        -0.832558        -0.285817
 H        -1.990637         1.562679         0.376305
 H        -1.402175         3.258573         0.389190
 H        -0.953878         2.343924        -1.081824
 H         1.799473         0.653325         2.879896
 H         2.605660         3.042650         1.503393
 H         3.474390         1.576649         1.150908
 H         2.542861         1.900833        -1.750750
 H         0.354659        -1.383402         0.421422
 H         0.391841        -0.589727        -1.289587
 H         1.777409        -1.438526        -0.551135
