19
Iteration:   185charge 0 multiplicity 1
 C        -0.930676         2.224723        -0.068171
 C         0.295466         1.783464         0.549486
 O         0.303747         1.788814         2.012677
 C         1.555491         1.076947         1.933006
 C         2.469054         2.144090         1.246243
 C         1.695048         2.034950        -0.027803
 O         1.730318         2.338265        -1.330861
 C         1.187202         0.613323         0.420696
 C         0.684764        -0.765093        -0.116750
 H        -1.753286         1.770903         0.488671
 H        -1.109591         3.302783         0.063857
 H        -0.971939         2.039453        -1.108149
 H         1.951749         0.548403         2.873228
 H         2.604216         3.149150         1.821783
 H         3.547759         1.755460         1.161105
 H         2.470272         1.854872        -1.703663
 H         0.080874        -1.187378         0.567794
 H         0.212669        -0.725300        -1.114517
 H         1.638437        -1.521338        -0.223785
