19
Iteration:  3885charge 0 multiplicity 1
 C        -0.938215         2.416914        -0.044149
 C         0.128569         1.783666         0.734524
 O         0.318918         1.877609         2.135330
 C         1.585223         1.040335         1.910839
 C         2.512794         1.984127         1.156661
 C         1.603389         1.915274        -0.044240
 O         1.803859         2.432712        -1.332110
 C         1.072729         0.540836         0.462826
 C         0.904493        -0.801053        -0.273409
 H        -1.920993         1.929379         0.053926
 H        -1.213214         3.446312         0.425720
 H        -0.854648         2.355416        -1.162812
 H         1.877644         0.493444         2.798575
 H         2.587913         3.002827         1.678822
 H         3.549504         1.552565         0.898038
 H         1.586223         1.640641        -1.870519
 H         0.147486        -1.559639         0.135140
 H         0.575881        -0.563353        -1.331104
 H         1.968266        -1.451086        -0.325532
