19
Iteration:  3886
 C        -0.930575         2.408378        -0.033103
 C         0.132573         1.785159         0.730724
 O         0.317764         1.877680         2.123188
 C         1.589977         1.037957         1.905320
 C         2.515414         1.990353         1.159327
 C         1.606083         1.918342        -0.042151
 O         1.798014         2.428638        -1.325525
 C         1.061785         0.538684         0.466672
 C         0.899981        -0.792237        -0.273769
 H        -1.925617         1.926903         0.021964
 H        -1.211111         3.416578         0.414711
 H        -0.878674         2.339769        -1.178323
 H         1.870557         0.510882         2.795667
 H         2.618608         2.986839         1.690073
 H         3.536456         1.524037         0.880381
 H         1.625128         1.638760        -1.848026
 H         0.156511        -1.550301         0.151467
 H         0.612877        -0.555933        -1.337270
 H         1.935871        -1.405362        -0.320948
