19
Iteration:  4850
 C        -1.014728         2.352979         0.033165
 C         0.174112         1.831730         0.692452
 O         0.434152         1.849670         2.098530
 C         1.524292         0.984967         1.846897
 C         2.597234         1.973593         1.132788
 C         1.603544         1.975685         0.017141
 O         1.824889         2.343781        -1.300065
 C         1.054764         0.586944         0.314751
 C         0.807030        -0.787045        -0.241045
 H        -1.924107         1.875882         0.453489
 H        -1.301000         3.378431         0.232712
 H        -0.819875         2.200401        -0.989682
 H         1.773735         0.354855         2.701267
 H         2.774531         3.025121         1.463319
 H         3.502865         1.403206         0.953169
 H         1.631893         3.311119        -1.301679
 H         0.166104        -1.327559         0.631457
 H         0.083428        -0.598363        -1.100662
 H         1.716023        -1.383229        -0.393778
