19
Iteration:  1384
 C        -1.026132         2.283387        -0.105146
 C         0.200213         1.788276         0.605729
 O         0.322881         1.895836         2.086348
 C         1.647650         1.103494         1.907681
 C         2.516968         2.156140         1.258846
 C         1.637961         1.925013         0.026166
 O         1.783075         2.223146        -1.350496
 C         1.140717         0.526453         0.500035
 C         0.770651        -0.702055        -0.241671
 H        -1.975828         1.725706        -0.064584
 H        -1.450395         3.292603         0.220607
 H        -0.858697         2.322835        -1.183307
 H         1.972498         0.584461         2.893983
 H         2.667747         3.078488         1.877874
 H         3.449755         1.558542         1.165565
 H         2.623519         1.799090        -1.664056
 H        -0.076164        -1.240808         0.170466
 H         0.338712        -0.205058        -1.138281
 H         1.652970        -1.422631        -0.487640
