19
Iteration:  2792charge 0 multiplicity 1
 C        -1.118893         2.153236         0.043754
 C         0.280741         1.765095         0.523030
 O         0.272852         1.873923         1.974634
 C         1.520072         1.079016         1.861476
 C         2.559695         2.130979         1.176070
 C         1.653284         2.017027         0.001231
 O         1.920687         2.477890        -1.238192
 C         1.142320         0.554509         0.453165
 C         0.766731        -0.865693        -0.204352
 H        -1.921915         1.751205         0.752574
 H        -1.274457         3.201516         0.252129
 H        -1.336350         1.849094        -1.066367
 H         1.648319         0.551948         2.880409
 H         2.634801         2.968330         1.801773
 H         3.453344         1.510248         1.086613
 H         2.900006         2.643134        -1.313222
 H        -0.076664        -1.413085         0.312750
 H         0.352142        -0.743639        -1.310403
 H         1.576520        -1.583536        -0.455939
