19
Iteration:  4130
 C        -1.139948         2.368792         0.145941
 C         0.144173         1.867560         0.732335
 O         0.317916         1.888512         2.055102
 C         1.589381         1.053007         1.831561
 C         2.660135         2.004640         1.190177
 C         1.696801         1.841295         0.040122
 O         1.995868         2.211970        -1.383989
 C         0.960902         0.624895         0.409755
 C         0.771182        -0.691005        -0.363540
 H        -2.049795         1.661154         0.430857
 H        -1.184947         3.337756         0.547815
 H        -1.040985         2.372531        -0.929465
 H         1.894541         0.410553         2.733195
 H         2.688047         3.005289         1.736491
 H         3.622287         1.491353         1.349889
 H         1.169332         2.658314        -1.762655
 H        -0.004046        -1.293048         0.201129
 H         0.658653        -0.360840        -1.440856
 H         1.739677        -1.358852        -0.461760
