19
Iteration:  1383
 C        -1.032892         2.279390        -0.116208
 C         0.201620         1.790257         0.617115
 O         0.335625         1.890782         2.097020
 C         1.642510         1.118683         1.904789
 C         2.512005         2.153388         1.261446
 C         1.629724         1.922761         0.022579
 O         1.784358         2.224594        -1.353490
 C         1.135626         0.523857         0.500630
 C         0.779057        -0.703430        -0.245136
 H        -1.932406         1.736563        -0.056168
 H        -1.430232         3.283481         0.197848
 H        -0.855339         2.338287        -1.230311
 H         1.958301         0.594487         2.928989
 H         2.683049         3.033216         1.892450
 H         3.438180         1.540630         1.158526
 H         2.635811         1.797528        -1.669199
 H        -0.076647        -1.226134         0.205337
 H         0.320196        -0.185538        -1.184257
 H         1.623360        -1.412053        -0.497873
