19
Iteration:  3535
 C        -1.169245         2.018227         0.008519
 C         0.228151         1.841397         0.546335
 O         0.358979         2.005503         1.954489
 C         1.592558         1.102547         1.890592
 C         2.647510         1.916593         1.140772
 C         1.588884         1.959850         0.061731
 O         1.904669         2.418411        -1.229389
 C         0.986640         0.590923         0.517076
 C         0.779348        -0.664857        -0.221119
 H        -1.908829         1.390456         0.509232
 H        -1.460990         2.935793         0.391495
 H        -1.293011         1.973118        -1.057887
 H         1.659009         0.460469         2.840503
 H         3.100908         2.821130         1.590178
 H         3.519423         1.403460         0.811482
 H         2.864123         2.326159        -1.466602
 H        -0.198489        -1.306971        -0.104323
 H         0.730071        -0.267364        -1.275523
 H         1.619326        -1.317462        -0.185089
