19
Iteration:  3691charge 0 multiplicity 1
 C        -1.011747         2.300223         0.007874
 C         0.184829         1.841946         0.624383
 O         0.330519         1.793769         2.068404
 C         1.558004         1.063148         1.896793
 C         2.499098         2.006914         1.113100
 C         1.553336         1.874248        -0.075341
 O         1.901596         2.472550        -1.248787
 C         1.003717         0.651457         0.370423
 C         0.887768        -0.791928        -0.106286
 H        -1.874685         1.574377         0.109760
 H        -1.446388         3.258196         0.267794
 H        -0.880948         2.477627        -1.114315
 H         1.905455         0.468063         2.738111
 H         2.678420         3.001000         1.425167
 H         3.451375         1.473173         0.894836
 H         2.497537         2.020674        -1.850647
 H         0.122285        -1.422103         0.495261
 H         0.467197        -0.924496        -1.166674
 H         1.959687        -1.166911         0.099922
