19
Iteration:  2288charge 0 multiplicity 1
 C        -1.064935         2.217756        -0.154679
 C         0.161853         1.822821         0.635092
 O         0.333230         1.879060         2.131777
 C         1.479307         1.012468         1.856141
 C         2.630049         1.901424         1.141648
 C         1.580373         2.032822         0.049392
 O         1.756193         2.426725        -1.298898
 C         1.007175         0.630910         0.438413
 C         1.018498        -0.662866        -0.113676
 H        -1.764782         1.406926        -0.204926
 H        -1.462912         3.199412         0.173966
 H        -0.612617         2.385270        -1.079230
 H         1.751218         0.350440         2.630738
 H         2.959948         2.792275         1.617414
 H         3.465357         1.238707         0.848198
 H         1.923836         1.603225        -1.845491
 H         0.758239        -1.375584         0.659339
 H         0.393781        -0.632012        -0.912865
 H         2.096623        -0.946641        -0.453282
