19
Iteration:  2564
 C        -0.996100         2.046741        -0.196033
 C         0.227720         1.869714         0.629448
 O         0.336162         1.925685         2.136573
 C         1.551902         1.049877         1.978722
 C         2.617428         1.895354         1.178161
 C         1.621314         2.048701         0.016534
 O         1.667189         2.447043        -1.299623
 C         1.018389         0.616366         0.571313
 C         0.858600        -0.641649        -0.297036
 H        -1.837644         1.397384         0.147270
 H        -1.396351         3.005009        -0.327727
 H        -0.614383         1.687147        -1.194667
 H         1.975875         0.344382         2.836969
 H         3.058880         2.863285         1.710998
 H         3.491560         1.251772         0.825187
 H         2.510766         2.390591        -1.780880
 H         0.107386        -1.282475         0.134050
 H         0.778910        -0.504725        -1.323829
 H         1.764038        -1.356080        -0.001040
