19
Iteration:  1271
 C        -1.123623         2.417247        -0.011844
 C         0.140428         1.755875         0.628389
 O         0.323307         1.813982         2.085319
 C         1.578971         1.095382         1.831915
 C         2.505074         2.089793         1.209712
 C         1.584425         1.958547        -0.057161
 O         1.906343         2.434164        -1.381756
 C         1.107657         0.531760         0.355998
 C         0.888959        -0.901431        -0.044607
 H        -2.041948         2.198947         0.346569
 H        -1.004083         3.457990        -0.014379
 H        -1.062583         2.010188        -1.037887
 H         1.806870         0.342599         2.652142
 H         2.550889         3.041300         1.715097
 H         3.498853         1.650198         1.087302
 H         2.808241         2.130402        -1.432813
 H         0.024949        -1.344416         0.452377
 H         0.542540        -0.971519        -1.111013
 H         1.713295        -1.481504         0.113338
