19
Iteration:  2422
 C        -0.978470         2.238150        -0.167793
 C         0.148367         1.743954         0.610905
 O         0.351815         2.009244         1.973092
 C         1.606421         1.138126         1.934724
 C         2.643442         1.903242         1.198357
 C         1.596900         1.935793         0.041187
 O         1.603323         2.495613        -1.185877
 C         1.044656         0.487488         0.548459
 C         0.951939        -0.833623        -0.277156
 H        -1.936375         1.679239         0.136313
 H        -1.289116         3.220652         0.121671
 H        -0.881139         2.159262        -1.249716
 H         1.729177         0.582517         3.018846
 H         2.780805         2.867872         1.739776
 H         3.552869         1.317975         1.071119
 H         2.448706         2.789191        -1.561101
 H         0.324215        -1.599854         0.175951
 H         0.587431        -0.636973        -1.249460
 H         1.929310        -1.440066        -0.477862
