19
Iteration:  1347charge 0 multiplicity 1
 C        -0.986812         2.170116        -0.144106
 C         0.224267         1.880349         0.677570
 O         0.302260         2.001541         2.042928
 C         1.566081         1.080785         1.790827
 C         2.628250         1.982262         1.171427
 C         1.613697         1.876095         0.013626
 O         1.755736         2.371990        -1.228903
 C         0.962763         0.571946         0.585002
 C         0.882739        -0.696949        -0.200899
 H        -1.774433         1.552269         0.263635
 H        -1.263797         3.175733        -0.047960
 H        -0.746602         1.867481        -1.225346
 H         1.750653         0.507757         2.747541
 H         2.958651         2.820078         1.761520
 H         3.463250         1.309914         0.923228
 H         2.421134         1.830934        -1.758146
 H         0.200830        -1.493423         0.251328
 H         0.291477        -0.366537        -1.212553
 H         1.768983        -1.176413        -0.460035
