19
Iteration:   411
 C        -1.096895         2.132911         0.002659
 C         0.196568         1.799474         0.586759
 O         0.301564         2.001381         1.986595
 C         1.498955         1.058996         1.873518
 C         2.515696         2.012853         1.081199
 C         1.588433         1.870067        -0.066409
 O         1.999003         2.503436        -1.239433
 C         1.022148         0.553798         0.539471
 C         0.861452        -0.737059        -0.126485
 H        -1.816987         1.574656         0.630733
 H        -1.193622         3.208444         0.328471
 H        -1.064961         1.894944        -1.046047
 H         1.667250         0.449589         2.702110
 H         2.785928         3.002550         1.598139
 H         3.353205         1.272483         0.932658
 H         2.641623         1.964587        -1.748073
 H         0.530924        -1.539016         0.477457
 H         0.164384        -0.600398        -1.008425
 H         1.781984        -1.215804        -0.529887
