19
Iteration:  3804charge 0 multiplicity 1
 C        -1.149101         2.255612         0.023358
 C         0.172324         1.871829         0.608291
 O         0.303245         1.944422         2.052032
 C         1.552165         1.000724         1.834483
 C         2.658480         1.923621         1.146406
 C         1.630198         1.891738        -0.062748
 O         1.860148         2.418560        -1.290072
 C         0.951701         0.585810         0.459557
 C         0.909297        -0.754138        -0.175425
 H        -1.847073         1.517278         0.518752
 H        -1.310882         3.306486         0.070697
 H        -1.017961         1.999824        -1.038996
 H         1.785199         0.403772         2.750757
 H         2.756516         2.907457         1.659464
 H         3.659103         1.539536         0.938003
 H         2.539119         3.127288        -1.173038
 H         0.310005        -1.440164         0.486984
 H         0.473279        -0.835944        -1.245799
 H         2.026976        -1.264885        -0.187868
