19
Iteration:  4880charge 0 multiplicity 1
 C        -1.091752         2.188591        -0.059800
 C         0.196077         1.817967         0.645190
 O         0.422751         1.930889         2.109360
 C         1.624645         0.907411         1.890083
 C         2.687459         1.835083         1.116807
 C         1.633568         2.011672         0.009273
 O         1.867764         2.468907        -1.355557
 C         0.961064         0.569575         0.571425
 C         0.723509        -0.645913        -0.218482
 H        -1.936436         1.434278         0.157646
 H        -1.594816         3.110492         0.323706
 H        -1.007362         2.207653        -1.172427
 H         1.888820         0.397880         2.787424
 H         3.032596         2.864658         1.420976
 H         3.568447         1.241546         0.883715
 H         1.352893         3.265709        -1.503648
 H        -0.027366        -1.242804         0.264418
 H         0.287164        -0.305285        -1.155786
 H         1.679251        -1.215764        -0.534353
