19
Iteration:  1228charge 0 multiplicity 1
 C        -0.940211         2.295153        -0.141500
 C         0.236248         1.835111         0.641566
 O         0.313397         1.945407         2.041518
 C         1.538696         1.117699         1.932211
 C         2.561087         2.007496         1.207030
 C         1.604701         1.969846         0.046045
 O         1.667200         2.356461        -1.281457
 C         1.154240         0.534177         0.491150
 C         0.865643        -0.845940        -0.249522
 H        -1.619649         1.575080         0.157353
 H        -1.318997         3.207629         0.284355
 H        -0.814280         2.279886        -1.277090
 H         1.838211         0.729675         2.972002
 H         2.713894         2.925172         1.735881
 H         3.507645         1.465927         1.035510
 H         2.238276         1.831372        -1.838399
 H         0.047065        -1.380022         0.202935
 H         0.467833        -0.568653        -1.239003
 H         1.696585        -1.483867        -0.333359
