19
Iteration:  4087
 C        -1.047308         2.418437         0.079757
 C         0.187373         1.755803         0.656831
 O         0.349244         1.939308         2.060968
 C         1.581458         1.036109         1.841908
 C         2.625172         1.885466         1.204378
 C         1.611720         1.945709        -0.005062
 O         1.794379         2.308230        -1.342324
 C         1.011243         0.569349         0.413645
 C         0.836673        -0.760508        -0.252479
 H        -2.071910         1.912999         0.139177
 H        -1.259736         3.411838         0.254915
 H        -0.963277         2.548786        -0.967503
 H         1.765212         0.307674         2.693843
 H         2.932906         2.813993         1.718910
 H         3.500390         1.325500         0.910779
 H         2.400177         3.098021        -1.282466
 H         0.094879        -1.434177         0.323602
 H         0.420100        -0.568080        -1.321420
 H         1.900999        -1.219139        -0.255162
