19
Iteration:  4724
 C        -1.076673         2.247900         0.037786
 C         0.203334         1.797330         0.664666
 O         0.409902         1.979037         2.069212
 C         1.558507         1.038110         1.985516
 C         2.643210         1.869257         1.202311
 C         1.640455         1.924844        -0.057765
 O         1.845394         2.320490        -1.353810
 C         0.961952         0.587006         0.468122
 C         0.784922        -0.654433        -0.349259
 H        -1.730549         1.493696         0.439307
 H        -1.125664         3.232795         0.510921
 H        -1.216685         2.258866        -1.056946
 H         1.727137         0.413687         2.924301
 H         2.923308         2.783050         1.709130
 H         3.573582         1.301299         0.939239
 H         1.420913         3.194917        -1.567132
 H        -0.027836        -1.250787        -0.084361
 H         0.691037        -0.278412        -1.390281
 H         1.791717        -1.296126        -0.305807
