19
Iteration:  4983charge 0 multiplicity 1
 C        -1.100048         2.476426         0.050400
 C         0.196432         1.842453         0.656440
 O         0.412107         1.798292         2.127074
 C         1.592374         0.950770         1.843430
 C         2.518196         1.950966         1.198519
 C         1.641677         1.861071        -0.057343
 O         1.788906         2.307207        -1.366696
 C         1.069136         0.600320         0.422957
 C         0.888888        -0.694362        -0.236533
 H        -1.985265         1.991145         0.487415
 H        -1.077488         3.551233         0.178888
 H        -1.325455         2.359506        -1.011375
 H         1.870343         0.347326         2.752341
 H         2.526023         2.879031         1.801708
 H         3.526346         1.573976         0.931784
 H         1.807635         3.290112        -1.333771
 H         0.157188        -1.519504         0.229790
 H         0.485131        -0.487829        -1.290429
 H         1.820432        -1.168771        -0.465967
