19
Iteration:  3827charge 0 multiplicity 1
 C        -1.138300         2.404730         0.059666
 C         0.162273         1.792432         0.577408
 O         0.332484         1.839695         2.024351
 C         1.460109         1.054280         1.854812
 C         2.547666         1.982853         1.250632
 C         1.686476         1.943682        -0.040162
 O         1.854891         2.378481        -1.397342
 C         1.122418         0.603166         0.386578
 C         0.929999        -0.854035        -0.121292
 H        -1.928500         1.826608         0.582495
 H        -1.026997         3.464407         0.376036
 H        -1.196339         2.406363        -0.990217
 H         1.756413         0.338601         2.668660
 H         2.982267         2.883075         1.779354
 H         3.357466         1.328318         0.964096
 H         1.666503         3.344452        -1.277148
 H         0.420629        -1.464807         0.653126
 H         0.385736        -0.979198        -1.138177
 H         2.033337        -1.398814        -0.290576
