19
Iteration:   194
 C        -1.017242         2.224816        -0.116145
 C         0.277704         1.784112         0.551562
 O         0.314750         1.815418         1.990772
 C         1.540739         1.078433         1.884502
 C         2.597511         2.122863         1.296060
 C         1.652214         2.023700         0.034561
 O         1.729379         2.327737        -1.344984
 C         1.127039         0.577369         0.465283
 C         0.769491        -0.730321        -0.087951
 H        -1.923763         1.704847         0.393425
 H        -1.029909         3.357665         0.127923
 H        -0.961903         1.949944        -1.159886
 H         2.077441         0.542908         2.784140
 H         2.675922         3.108748         1.788068
 H         3.573966         1.605249         1.159162
 H         2.485293         1.980161        -1.807290
 H         0.019154        -1.301559         0.516425
 H         0.163660        -0.550348        -1.021871
 H         1.537525        -1.291224        -0.468229
