19
Iteration:   920
 C        -0.938882         2.216832        -0.175699
 C         0.265771         1.838191         0.597556
 O         0.315594         1.934574         2.038783
 C         1.522049         1.003503         1.872231
 C         2.595768         1.942709         1.093960
 C         1.580746         2.039817         0.091399
 O         1.627590         2.465523        -1.227327
 C         1.016385         0.575667         0.482864
 C         0.944852        -0.792553        -0.120882
 H        -1.812802         1.668539         0.055537
 H        -1.220087         3.246568         0.001530
 H        -0.728179         2.074668        -1.194641
 H         1.878035         0.500342         2.823576
 H         2.970012         2.811917         1.714459
 H         3.392698         1.240379         0.945033
 H         2.449294         1.983287        -1.554721
 H         0.105286        -1.427032         0.177217
 H         0.728567        -0.636701        -1.124817
 H         1.989378        -1.373976         0.060661
