19
Iteration:  4478charge 0 multiplicity 1
 C        -1.079520         2.253418        -0.023125
 C         0.237039         1.957137         0.706367
 O         0.441899         1.998492         2.083255
 C         1.524677         1.075701         1.884619
 C         2.632260         1.819221         1.199247
 C         1.640385         1.948873         0.030468
 O         1.869443         2.365196        -1.290214
 C         0.986238         0.564531         0.329183
 C         0.758654        -0.825096        -0.288748
 H        -1.896282         1.643187         0.365298
 H        -1.408133         3.225497         0.399610
 H        -0.954335         2.217303        -1.082976
 H         1.805249         0.437045         2.769961
 H         3.104208         2.706059         1.644798
 H         3.376941         1.121156         0.925898
 H         1.168081         3.020328        -1.471768
 H         0.160155        -1.500277         0.439514
 H         0.161326        -0.603620        -1.183884
 H         1.810460        -1.238738        -0.569600
