19
Iteration:  3400charge 0 multiplicity 1
 C        -1.173481         2.362840         0.005266
 C         0.190145         1.825550         0.557695
 O         0.355769         1.937947         2.011769
 C         1.544571         1.063938         1.907034
 C         2.599715         1.879404         1.246221
 C         1.563633         1.945441         0.009361
 O         1.782362         2.407668        -1.344287
 C         1.008524         0.522610         0.517754
 C         0.998292        -0.744246        -0.209079
 H        -2.021346         1.880067         0.417371
 H        -1.237888         3.432888        -0.123061
 H        -1.033920         2.107245        -1.031306
 H         1.726255         0.466828         2.745027
 H         3.041921         2.687329         1.907494
 H         3.407548         1.274186         0.759352
 H         2.663379         2.158624        -1.609917
 H         0.486512        -1.569978         0.462826
 H         0.636592        -0.648655        -1.242756
 H         2.030741        -1.209554        -0.393521
