19
Iteration:   107
 C        -1.082233         2.171294        -0.059766
 C         0.187732         1.858750         0.505374
 O         0.383624         2.015866         2.006559
 C         1.472233         1.050955         1.891235
 C         2.693138         1.818165         1.253237
 C         1.641882         1.928362        -0.038639
 O         1.725611         2.475763        -1.330315
 C         0.917694         0.611461         0.491552
 C         0.946934        -0.746387        -0.108177
 H        -1.804429         1.398970         0.325037
 H        -1.362851         3.203736         0.260101
 H        -1.284608         2.186659        -1.098544
 H         1.757791         0.452088         2.912617
 H         3.093407         2.777079         1.752795
 H         3.545300         1.113806         0.936957
 H         2.634609         2.380520        -1.590153
 H         0.240965        -1.366386         0.389353
 H         0.812927        -0.784731        -1.227121
 H         1.977431        -1.158937         0.276266
