19
Iteration:  4048
 C        -0.954257         2.398238        -0.059646
 C         0.155831         1.808366         0.660315
 O         0.377843         1.916303         2.063689
 C         1.566202         0.981419         1.817193
 C         2.590753         1.875244         1.164784
 C         1.567777         1.904490         0.016711
 O         1.712670         2.522705        -1.304349
 C         1.067012         0.521794         0.418009
 C         0.804075        -0.789875        -0.128283
 H        -1.796082         1.880991         0.299137
 H        -0.956666         3.518577         0.222232
 H        -0.586825         2.145464        -1.099073
 H         1.839713         0.313375         2.616819
 H         2.774769         2.739951         1.824031
 H         3.483741         1.326634         0.777925
 H         2.653554         2.513443        -1.498340
 H         0.232423        -1.487780         0.420696
 H         0.277675        -0.750433        -1.058926
 H         1.746947        -1.246457        -0.341265
