19
Iteration:   973
 C        -1.052749         2.256077         0.095267
 C         0.226236         1.799799         0.539563
 O         0.296830         1.878879         2.007606
 C         1.502940         1.148679         1.900137
 C         2.526151         2.143270         1.214755
 C         1.594996         1.928641        -0.007566
 O         1.896548         2.315215        -1.305223
 C         1.025897         0.559628         0.440958
 C         0.890589        -0.764536        -0.256110
 H        -1.801975         1.422804         0.424394
 H        -1.236192         3.275438         0.503935
 H        -1.088932         2.255531        -0.976504
 H         1.692503         0.409879         2.737278
 H         2.674202         3.076348         1.822363
 H         3.400034         1.588763         0.944465
 H         2.726736         1.773723        -1.467026
 H         0.394086        -1.555727         0.311237
 H         0.305868        -0.725106        -1.182362
 H         1.963131        -1.111651        -0.502298
