19
Iteration:  4720
 C        -1.106996         2.262212         0.014940
 C         0.247292         1.789924         0.667909
 O         0.405349         1.946854         2.056046
 C         1.586022         1.039947         1.921463
 C         2.619519         1.881639         1.219431
 C         1.639888         1.901927        -0.052223
 O         1.857245         2.318135        -1.354391
 C         0.959761         0.556223         0.508804
 C         0.782584        -0.595665        -0.320111
 H        -1.853769         1.493166         0.476541
 H        -1.174449         3.280051         0.604712
 H        -1.216362         2.181879        -1.079995
 H         1.714148         0.387293         2.754202
 H         2.937275         2.888005         1.684895
 H         3.620281         1.430985         0.977653
 H         1.519697         3.201891        -1.495385
 H        -0.105387        -1.232375         0.022836
 H         0.686186        -0.334257        -1.393743
 H         1.636185        -1.207529        -0.320413
