19
Iteration:  2335charge 0 multiplicity 1
 C        -1.197546         2.098740         0.102347
 C         0.229470         1.766319         0.587641
 O         0.297979         1.939374         1.951534
 C         1.549361         1.092952         1.897808
 C         2.517018         2.138048         1.190444
 C         1.723858         1.849445        -0.100322
 O         2.020711         2.551913        -1.241215
 C         1.068352         0.527625         0.446181
 C         0.800001        -0.801531        -0.214865
 H        -1.864875         1.410408         0.784166
 H        -1.356766         3.145699         0.462710
 H        -1.460572         2.004006        -0.973292
 H         1.514837         0.345171         2.844417
 H         2.622126         3.119192         1.668077
 H         3.488611         1.689986         1.149335
 H         2.196033         2.103452        -2.065089
 H        -0.032701        -1.316442         0.280574
 H         0.526900        -0.517330        -1.236996
 H         1.687302        -1.525643        -0.212646
