19
Iteration:  4287charge 0 multiplicity 1
 C        -1.097043         2.445887         0.047780
 C         0.179234         1.884726         0.635606
 O         0.395075         1.835735         2.041366
 C         1.602931         1.065535         1.870380
 C         2.592617         1.961719         1.204383
 C         1.629978         1.896049         0.030263
 O         1.863994         2.250838        -1.358274
 C         1.024302         0.557840         0.398167
 C         0.801748        -0.761665        -0.235728
 H        -2.034829         2.067137         0.403489
 H        -1.278060         3.382706         0.505483
 H        -1.070832         2.470411        -1.065081
 H         1.837372         0.557871         2.758447
 H         2.799546         2.928859         1.680397
 H         3.503050         1.307226         1.100465
 H         1.824075         3.213276        -1.471115
 H         0.138036        -1.462183         0.400976
 H         0.307158        -0.735942        -1.290454
 H         1.726355        -1.356839        -0.385078
