19
Iteration:  2304
 C        -1.113812         2.134486        -0.074360
 C         0.128129         1.859448         0.678014
 O         0.344814         1.948070         2.024365
 C         1.593324         1.038424         1.869842
 C         2.580330         1.932767         1.162604
 C         1.555557         2.000022        -0.013640
 O         1.912356         2.490343        -1.241903
 C         1.003484         0.640938         0.440671
 C         0.964513        -0.745585        -0.145544
 H        -1.991211         1.354385         0.090434
 H        -1.677128         3.007470         0.306013
 H        -1.038870         2.220397        -1.232745
 H         1.598205         0.204255         2.751623
 H         3.088574         2.762647         1.767391
 H         3.324803         1.256693         0.740721
 H         1.932192         1.794455        -1.947131
 H         0.478706        -1.459858         0.566118
 H         0.395737        -0.904193        -1.201078
 H         1.936071        -1.189443        -0.384787
