19
Iteration:  3241
 C        -1.056056         2.320958        -0.158599
 C         0.181411         1.820479         0.644676
 O         0.267363         1.881044         2.105057
 C         1.504877         1.021340         1.805687
 C         2.638407         1.829198         1.114591
 C         1.631470         1.967000        -0.077849
 O         1.852479         2.647799        -1.323345
 C         0.977449         0.526285         0.517098
 C         0.943740        -0.821506         0.026482
 H        -1.950141         1.725798         0.012587
 H        -1.229357         3.343166         0.093664
 H        -0.921652         2.284971        -1.199362
 H         1.551142         0.529507         2.775100
 H         2.815704         2.655383         1.804228
 H         3.382736         1.109848         0.758914
 H         2.389297         2.062756        -1.873301
 H         0.553686        -1.552041         0.770520
 H         0.248617        -0.906636        -0.932525
 H         2.078836        -1.296904        -0.199165
