19
Iteration:  3911
 C        -1.074452         2.298563        -0.047024
 C         0.183747         1.863516         0.574519
 O         0.399541         1.885204         2.033856
 C         1.518175         1.036670         1.876265
 C         2.675340         1.934821         1.193549
 C         1.656991         1.927209         0.047094
 O         1.677480         2.325178        -1.234550
 C         1.051283         0.614018         0.470200
 C         0.887178        -0.661409        -0.257133
 H        -1.925908         1.616919         0.264057
 H        -1.364475         3.213804         0.380125
 H        -1.205992         2.248219        -1.160109
 H         1.706937         0.323401         2.687742
 H         2.833204         2.916170         1.600739
 H         3.602216         1.394871         0.964806
 H         2.611183         2.085775        -1.449691
 H         0.085497        -1.263006         0.187868
 H         0.621048        -0.413409        -1.299262
 H         1.717732        -1.278144        -0.270735
