19
Iteration:  1030charge 0 multiplicity 1
 C        -1.046381         2.189606        -0.015888
 C         0.240118         1.812768         0.571231
 O         0.292247         1.920450         1.984889
 C         1.556597         1.103756         1.878516
 C         2.578561         1.995229         1.131452
 C         1.605331         1.996040         0.007746
 O         1.864610         2.413841        -1.243147
 C         0.916596         0.523389         0.542855
 C         0.888548        -0.719568        -0.214410
 H        -1.718769         1.581509         0.513438
 H        -1.312718         3.229899         0.125076
 H        -0.938639         1.933634        -1.125785
 H         1.773446         0.447317         2.682803
 H         2.676174         2.865172         1.824364
 H         3.579884         1.707227         0.920668
 H         2.481347         1.772389        -1.605187
 H         0.274906        -1.398787         0.377310
 H         0.608815        -0.656524        -1.152980
 H         1.883111        -1.267487        -0.265121
