19
Iteration:  3879
 C        -1.019808         2.478767        -0.078719
 C         0.135692         1.767546         0.723760
 O         0.337391         1.866367         2.204111
 C         1.546932         1.055934         1.931623
 C         2.513176         1.982746         1.148427
 C         1.577780         1.885279        -0.029969
 O         1.834346         2.439156        -1.369582
 C         1.112453         0.547359         0.439252
 C         0.954801        -0.868889        -0.272958
 H        -1.913173         1.902516         0.245952
 H        -1.077838         3.460561         0.287218
 H        -0.611181         2.553438        -1.117333
 H         1.888722         0.402742         2.753345
 H         2.461686         2.974016         1.537074
 H         3.547099         1.728010         1.072400
 H         1.419889         1.846364        -1.998788
 H         0.160848        -1.481772         0.101661
 H         0.451171        -0.660919        -1.213049
 H         1.771132        -1.428633        -0.369063
