19
Iteration:    11charge 0 multiplicity 1
 C        -0.985112         2.325276        -0.021527
 C         0.246103         1.818256         0.615096
 O         0.327358         1.829972         1.971145
 C         1.564100         1.107156         1.875366
 C         2.525175         2.133419         1.226358
 C         1.623104         1.944862         0.027337
 O         1.773860         2.306158        -1.314847
 C         1.025758         0.545108         0.438426
 C         0.868558        -0.778295        -0.174431
 H        -1.871263         1.830252         0.283509
 H        -1.205975         3.349625         0.118452
 H        -0.950566         2.138880        -1.053147
 H         1.814691         0.647998         2.944227
 H         2.614501         3.067219         1.838573
 H         3.487497         1.552404         1.171327
 H         2.350903         1.602566        -1.704796
 H         0.172104        -1.209853         0.472689
 H         0.341758        -0.615466        -1.124039
 H         1.908070        -1.322204        -0.310242
