19
Iteration:  3427charge 0 multiplicity 1
 C        -0.935114         2.462075        -0.052244
 C         0.196372         1.788523         0.637357
 O         0.336240         1.845805         2.119361
 C         1.553204         1.051674         1.840983
 C         2.479150         2.093305         1.112292
 C         1.601372         1.824909        -0.004879
 O         1.730346         2.372519        -1.248789
 C         0.959406         0.531849         0.393852
 C         0.949964        -0.817019        -0.179004
 H        -1.941284         1.926612         0.280408
 H        -0.862982         3.587858        -0.006132
 H        -0.747854         2.258370        -1.164981
 H         1.998919         0.325853         2.626286
 H         2.375307         3.028419         1.687548
 H         3.470697         1.645701         0.911032
 H         2.653432         2.430655        -1.478600
 H         0.615462        -1.384841         0.625213
 H         0.452364        -1.030706        -1.131622
 H         1.952057        -1.139055        -0.274632
