19
Iteration:  1235
 C        -0.924964         2.308706        -0.076843
 C         0.266213         1.841227         0.592900
 O         0.341196         1.874148         2.005472
 C         1.502836         1.119232         1.960502
 C         2.532133         2.047171         1.184936
 C         1.610044         1.895682        -0.004415
 O         1.665908         2.373741        -1.260552
 C         1.156832         0.577279         0.480920
 C         0.845046        -0.822091        -0.208880
 H        -1.751735         1.560242         0.194151
 H        -1.254011         3.349711         0.100026
 H        -0.800444         2.335866        -1.080933
 H         1.654473         0.645594         2.862986
 H         2.675369         3.079186         1.643059
 H         3.463379         1.538764         1.103388
 H         2.294392         1.776812        -1.645849
 H         0.064907        -1.371665         0.380716
 H         0.661584        -0.600396        -1.323209
 H         1.712368        -1.514541        -0.319280
