19
Iteration:  2019charge 0 multiplicity 1
 C        -1.096817         2.219574        -0.100341
 C         0.204267         1.921892         0.602804
 O         0.407642         1.962622         2.031710
 C         1.381741         1.054634         1.908756
 C         2.615243         1.796839         1.138267
 C         1.639261         1.895885        -0.030490
 O         1.689036         2.472245        -1.297163
 C         0.996640         0.635174         0.461700
 C         1.052066        -0.736964        -0.053707
 H        -1.941427         1.480251         0.110782
 H        -1.443771         3.258474         0.193465
 H        -0.839214         2.255192        -1.097197
 H         1.694596         0.354112         2.675829
 H         3.031360         2.770563         1.610970
 H         3.478835         1.098377         0.963134
 H         2.442126         2.006581        -1.694752
 H         0.297882        -1.430472         0.366988
 H         0.905197        -0.734921        -1.223495
 H         2.005288        -1.079608         0.199389
