19
Iteration:  2973
 C        -1.087145         2.137823        -0.088933
 C         0.149269         1.805306         0.659534
 O         0.431710         2.011135         2.020185
 C         1.510043         1.042516         1.896295
 C         2.572881         1.879513         1.273102
 C         1.596819         1.923867         0.024684
 O         1.816061         2.450493        -1.303282
 C         0.986009         0.604440         0.506064
 C         0.949618        -0.649842        -0.286111
 H        -1.945679         1.732082         0.430922
 H        -1.458448         3.162471        -0.009395
 H        -0.974679         1.863612        -1.156104
 H         1.552806         0.334057         2.859389
 H         2.903552         2.811801         1.796100
 H         3.529094         1.428666         1.018486
 H         2.055607         1.746975        -1.907998
 H         0.077037        -1.166357         0.094054
 H         0.932923        -0.623830        -1.320957
 H         1.929554        -1.218466        -0.106220
