19
Iteration:   252charge 0 multiplicity 1
 C        -1.169716         2.218490        -0.052519
 C         0.180186         1.813940         0.557308
 O         0.329976         2.117221         1.992930
 C         1.531449         1.004142         1.902494
 C         2.598708         1.832021         1.133014
 C         1.625306         1.936934         0.045257
 O         1.817579         2.457672        -1.291755
 C         0.947628         0.520268         0.558174
 C         1.025764        -0.770471        -0.139874
 H        -2.003962         1.670024         0.285166
 H        -1.444949         3.223374         0.117844
 H        -1.125213         2.183385        -1.154218
 H         1.697103         0.561203         2.845550
 H         3.010480         2.840611         1.555703
 H         3.492588         1.183975         0.827313
 H         2.600813         2.025725        -1.745722
 H         0.631649        -1.497799         0.377012
 H         0.520885        -0.616107        -1.057813
 H         2.076345        -1.057474        -0.331957
