19
Iteration:  2313charge 0 multiplicity 1
 C        -1.206266         2.110642        -0.026527
 C         0.175777         1.847265         0.586476
 O         0.353213         1.963209         2.059146
 C         1.549897         1.079922         1.838140
 C         2.594369         1.945962         1.183331
 C         1.572379         1.968329        -0.012465
 O         1.961528         2.518241        -1.223763
 C         0.993830         0.583878         0.395813
 C         0.911394        -0.800376        -0.171480
 H        -1.891485         1.207257         0.263293
 H        -1.516100         3.124916         0.339956
 H        -1.037649         2.204289        -1.114879
 H         1.866106         0.585733         2.900485
 H         2.933224         2.830908         1.758573
 H         3.443878         1.364423         0.861441
 H         1.978370         1.881886        -1.980622
 H         0.367877        -1.480979         0.495670
 H         0.420088        -0.705531        -1.157242
 H         2.000579        -1.161169        -0.268979
