19
Iteration:   249
 C        -1.137135         2.216489        -0.058411
 C         0.163628         1.833873         0.586405
 O         0.332314         2.119850         1.982357
 C         1.526951         1.019417         1.919237
 C         2.615565         1.852412         1.125795
 C         1.604414         1.956491         0.019932
 O         1.832646         2.455922        -1.283781
 C         0.932805         0.480624         0.578797
 C         1.026494        -0.765230        -0.158298
 H        -1.957569         1.485450         0.294842
 H        -1.430266         3.307915         0.065059
 H        -1.140279         2.163956        -1.142893
 H         1.748623         0.433476         2.861123
 H         2.959866         2.755480         1.583156
 H         3.424619         1.207648         0.781164
 H         2.552036         2.078803        -1.771250
 H         0.625681        -1.696987         0.457049
 H         0.488823        -0.641138        -1.145098
 H         1.986621        -1.053404        -0.337434
