19
Iteration:  1088
 C        -0.950456         2.248211        -0.171615
 C         0.285429         1.834714         0.594518
 O         0.329343         1.843773         2.018380
 C         1.528652         1.022532         1.873171
 C         2.573835         2.027795         1.106037
 C         1.615070         1.954927         0.009417
 O         1.674265         2.462747        -1.216060
 C         1.045294         0.532282         0.571327
 C         0.874386        -0.745047        -0.097980
 H        -1.910642         1.871969         0.108566
 H        -1.032638         3.342869        -0.179284
 H        -0.976488         1.997849        -1.205364
 H         1.814358         0.225854         2.617722
 H         2.664819         2.976141         1.638705
 H         3.523237         1.425657         0.928743
 H         2.530309         2.371882        -1.715699
 H        -0.038576        -1.230308         0.248650
 H         0.580902        -0.601559        -1.082624
 H         1.810319        -1.417671         0.171712
