19
Iteration:  1784charge 0 multiplicity 1
 C        -1.027653         2.200117         0.049862
 C         0.269281         1.861504         0.551186
 O         0.277410         1.950420         2.065244
 C         1.542616         1.083605         1.932736
 C         2.498213         2.109370         1.197640
 C         1.656696         1.916057        -0.015384
 O         1.894108         2.312068        -1.340427
 C         1.027155         0.557502         0.519088
 C         0.841526        -0.757212        -0.249183
 H        -1.874739         1.704218         0.426508
 H        -1.185993         3.246419         0.270137
 H        -0.966386         2.239170        -1.146232
 H         1.667378         0.382636         2.802809
 H         2.799824         3.067822         1.674279
 H         3.490754         1.584852         0.807289
 H         2.149622         1.542212        -1.891472
 H        -0.055314        -1.290188         0.119334
 H         0.532108        -0.423127        -1.194898
 H         1.701782        -1.530714        -0.310745
