19
Iteration:  3764
 C        -1.117647         2.049560        -0.106305
 C         0.209980         1.828665         0.686599
 O         0.317002         1.944130         2.100913
 C         1.622656         1.080793         1.934396
 C         2.691275         2.032248         1.200564
 C         1.639453         1.886768         0.082880
 O         1.824774         2.404678        -1.385905
 C         1.044951         0.560147         0.527678
 C         0.743348        -0.649636        -0.324739
 H        -2.000152         1.629195         0.304140
 H        -1.510019         3.169280        -0.118547
 H        -0.988376         1.850108        -1.123677
 H         1.827064         0.441778         2.828911
 H         2.869268         2.992419         1.784219
 H         3.619930         1.536703         0.884339
 H         2.777668         2.497349        -1.450371
 H        -0.131150        -1.224410        -0.058133
 H         0.394085        -0.342906        -1.259534
 H         1.560809        -1.222943        -0.258884
