19
Iteration:  1032
 C        -1.043462         2.192968        -0.030605
 C         0.237355         1.805236         0.560323
 O         0.306809         1.935931         1.980900
 C         1.548399         1.097260         1.877651
 C         2.591902         1.994623         1.140417
 C         1.594095         1.975030         0.011035
 O         1.847908         2.425054        -1.222837
 C         0.926451         0.510272         0.542021
 C         0.889487        -0.714502        -0.194871
 H        -1.741746         1.618220         0.426175
 H        -1.373625         3.208160         0.078035
 H        -0.977522         1.921018        -1.119290
 H         1.822641         0.446953         2.683725
 H         2.721738         2.857255         1.803363
 H         3.633313         1.670793         0.908456
 H         2.439594         1.829613        -1.673916
 H         0.214255        -1.419817         0.328290
 H         0.566387        -0.561174        -1.206726
 H         1.978615        -1.299787        -0.245832
