19
Iteration:  2239
 C        -0.949162         2.444948        -0.003743
 C         0.174002         1.634868         0.554137
 O         0.339299         1.895866         1.970291
 C         1.574582         1.158704         1.902097
 C         2.398347         2.155951         1.237567
 C         1.582197         1.813235         0.030715
 O         1.693337         2.300364        -1.296968
 C         1.103984         0.473403         0.531630
 C         0.979358        -0.805737        -0.280267
 H        -1.898685         2.024102         0.411030
 H        -0.727551         3.239936         0.681239
 H        -0.830704         2.798935        -1.065056
 H         1.921763         0.444499         2.762880
 H         2.296019         3.250098         1.642459
 H         3.441785         1.847920         1.026657
 H         2.619850         2.365509        -1.509147
 H         0.559404        -1.584893         0.386306
 H         0.476224        -0.525174        -1.333671
 H         1.944411        -1.147087        -0.463742
