19
Iteration:    60charge 0 multiplicity 1
 C        -0.985638         2.353760         0.005134
 C         0.177882         1.787024         0.679210
 O         0.307057         1.841464         2.037901
 C         1.587413         1.195604         1.932271
 C         2.494804         2.102440         1.186388
 C         1.574644         1.921351        -0.014246
 O         1.846605         2.257223        -1.307843
 C         0.990318         0.517184         0.442388
 C         0.910287        -0.752804        -0.255537
 H        -2.025491         1.934460         0.279568
 H        -0.948990         3.519944         0.089150
 H        -0.944144         2.301662        -1.170604
 H         1.842091         0.559014         2.790813
 H         2.573100         3.113842         1.593062
 H         3.490122         1.693846         0.995275
 H         2.336052         1.538159        -1.732595
 H         0.578285        -1.704355         0.405659
 H         0.380389        -0.681429        -1.211126
 H         1.953663        -0.982266        -0.442222
