19
Iteration:  4758
 C        -1.106654         2.378485         0.020963
 C         0.182132         1.901947         0.615617
 O         0.420974         1.970458         2.085325
 C         1.568595         0.979370         1.869964
 C         2.679382         1.839331         1.112672
 C         1.573526         1.834882         0.062756
 O         1.791611         2.291691        -1.273164
 C         0.935332         0.608073         0.470406
 C         0.952572        -0.685917        -0.306553
 H        -1.924501         1.860703         0.494126
 H        -1.433298         3.348851         0.338170
 H        -1.198145         2.330801        -1.096368
 H         1.725367         0.338707         2.781350
 H         2.954007         2.720964         1.650582
 H         3.546079         1.211769         0.867105
 H         1.189717         3.054415        -1.429116
 H         0.190822        -1.417446        -0.133014
 H         0.807350        -0.346646        -1.345493
 H         2.023206        -1.205824        -0.287081
