19
Iteration:  4851
 C        -1.015341         2.348353         0.028145
 C         0.169454         1.838032         0.686215
 O         0.435014         1.844888         2.103123
 C         1.529490         0.991163         1.833352
 C         2.602778         1.970329         1.139597
 C         1.604984         1.965001         0.015916
 O         1.826197         2.346098        -1.292416
 C         1.049721         0.593413         0.320075
 C         0.802058        -0.785518        -0.234592
 H        -1.922673         1.883832         0.436804
 H        -1.340713         3.353048         0.235597
 H        -0.824314         2.190421        -0.998940
 H         1.787787         0.368737         2.715439
 H         2.793318         3.022681         1.445488
 H         3.526403         1.403936         0.917528
 H         1.618589         3.296071        -1.307236
 H         0.163214        -1.340787         0.610467
 H         0.099942        -0.587612        -1.110908
 H         1.704590        -1.334234        -0.400305
