19
Iteration:  4826charge 0 multiplicity 1
 C        -0.998314         2.467084         0.118786
 C         0.198861         1.773973         0.570816
 O         0.344174         1.821913         2.048316
 C         1.587637         1.007108         1.804603
 C         2.572242         1.997025         1.289945
 C         1.621044         1.915874        -0.050933
 O         1.753830         2.355074        -1.405678
 C         1.062541         0.512839         0.423476
 C         0.825661        -0.813494        -0.197170
 H        -1.834649         2.190956         0.793310
 H        -0.881588         3.514712         0.402493
 H        -1.166785         2.464613        -0.960187
 H         1.862805         0.458182         2.669169
 H         2.638070         2.982488         1.754989
 H         3.529377         1.635886         0.967363
 H         2.076772         3.251502        -1.302404
 H         0.289111        -1.646334         0.416154
 H         0.275754        -0.511729        -1.103210
 H         1.900209        -1.142664        -0.461351
