19
Iteration:  1167charge 0 multiplicity 1
 C        -1.170171         2.192226        -0.000674
 C         0.175026         1.772785         0.672690
 O         0.320637         1.977349         2.001336
 C         1.483699         1.135251         1.878717
 C         2.660711         1.998321         1.254877
 C         1.663205         1.979638         0.030428
 O         1.907754         2.372538        -1.366389
 C         1.016691         0.586295         0.448414
 C         0.853733        -0.787585        -0.223824
 H        -1.933140         1.380818         0.305327
 H        -1.568479         3.158055         0.370028
 H        -1.190660         2.398659        -1.029391
 H         1.492151         0.498334         2.770525
 H         2.928317         2.948926         1.779197
 H         3.595259         1.459046         0.951185
 H         2.687112         1.827726        -1.627544
 H         0.463609        -1.593827         0.434318
 H         0.503024        -0.639683        -1.231470
 H         1.867835        -1.181817        -0.628552
