19
Iteration:  2577charge 0 multiplicity 1
 C        -0.964479         2.040649        -0.168074
 C         0.189778         1.861668         0.753404
 O         0.304695         1.936650         2.170404
 C         1.563672         1.052879         1.835132
 C         2.611432         1.941207         1.199974
 C         1.539094         2.012125         0.044284
 O         1.731572         2.514736        -1.343601
 C         1.095069         0.618963         0.416644
 C         0.852210        -0.729409        -0.188620
 H        -1.834614         1.467410         0.148776
 H        -1.168366         3.092562        -0.307074
 H        -0.700055         1.624779        -1.215094
 H         1.667714         0.524049         2.880530
 H         3.140475         2.837058         1.695909
 H         3.340913         1.168544         0.885984
 H         2.508535         1.970400        -1.575857
 H        -0.057153        -1.248163         0.049909
 H         0.712128        -0.547341        -1.274225
 H         1.855658        -1.304631        -0.240126
