19
Iteration:   620
 C        -0.982050         2.163297        -0.154897
 C         0.215030         1.730309         0.603813
 O         0.309183         1.907553         2.028423
 C         1.531368         1.116708         1.906726
 C         2.592425         2.056515         1.225756
 C         1.692052         1.954092         0.060780
 O         1.693064         2.321605        -1.244821
 C         1.184526         0.617256         0.527487
 C         0.766677        -0.676248        -0.241241
 H        -1.901531         1.725662         0.131646
 H        -1.205130         3.201463         0.005912
 H        -0.902249         2.007269        -1.257513
 H         1.714000         0.491733         2.735217
 H         2.738423         3.038998         1.796568
 H         3.541993         1.562036         0.882770
 H         2.471094         2.045759        -1.737384
 H         0.391718        -1.333239         0.390026
 H         0.062773        -0.433543        -1.074040
 H         1.744615        -1.146394        -0.563864
