19
Iteration:    21
 C        -0.977532         2.387147        -0.012158
 C         0.221345         1.807412         0.575797
 O         0.283521         1.770613         2.016075
 C         1.579569         1.110894         1.888908
 C         2.497735         2.190773         1.282694
 C         1.646863         1.960644         0.021011
 O         1.776149         2.225844        -1.346798
 C         1.106541         0.584235         0.432183
 C         0.838646        -0.758012        -0.203909
 H        -1.795219         1.879767         0.436311
 H        -0.971891         3.433089         0.147531
 H        -0.912577         2.217985        -1.037677
 H         1.920181         0.563102         2.863332
 H         2.468641         3.202557         1.777217
 H         3.567601         1.856164         1.161937
 H         2.123660         1.384879        -1.744556
 H         0.334518        -1.379144         0.426368
 H         0.264995        -0.706258        -1.144513
 H         1.779350        -1.425655        -0.430418
