19
Iteration:  3918
 C        -1.155641         2.281044        -0.036482
 C         0.252911         1.859674         0.633050
 O         0.362596         1.944485         2.068377
 C         1.550010         0.990385         1.870937
 C         2.640627         1.922573         1.204651
 C         1.658422         1.914770         0.054295
 O         1.716341         2.321516        -1.294230
 C         1.093648         0.618637         0.451641
 C         0.853470        -0.681974        -0.267781
 H        -1.868419         1.536546         0.298516
 H        -1.571001         3.350341         0.191902
 H        -1.254141         2.314269        -1.199590
 H         1.657334         0.449386         2.794215
 H         2.925374         2.845435         1.812563
 H         3.567857         1.303013         0.938502
 H         2.642618         2.458740        -1.634994
 H        -0.000914        -1.244730         0.230828
 H         0.708232        -0.408820        -1.345762
 H         1.901479        -1.352164        -0.410919
