19
Iteration:  1572charge 0 multiplicity 1
 C        -1.107786         2.196656        -0.009931
 C         0.202391         1.838019         0.499165
 O         0.319886         1.950148         2.028721
 C         1.531460         1.131791         1.832295
 C         2.619082         1.998766         1.232278
 C         1.686747         1.910480         0.089540
 O         1.867656         2.304742        -1.256756
 C         1.029883         0.626391         0.431662
 C         0.807455        -0.692683        -0.224032
 H        -1.760657         1.390272         0.571179
 H        -1.517753         3.170755         0.380967
 H        -1.184152         2.047719        -1.004324
 H         1.724500         0.534296         2.697566
 H         2.861509         3.051306         1.603618
 H         3.547730         1.560851         0.876869
 H         2.510691         1.646313        -1.524011
 H         0.110738        -1.346970         0.284159
 H         0.385649        -0.558345        -1.167192
 H         1.786392        -1.310802        -0.301901
