19
Iteration:  4536charge 0 multiplicity 1
 C        -1.055883         2.398365         0.086589
 C         0.229708         1.865227         0.701940
 O         0.328679         1.856714         2.108649
 C         1.557173         1.042006         1.876679
 C         2.656835         2.091334         1.185476
 C         1.597485         1.877059         0.053270
 O         1.843108         2.162629        -1.351563
 C         1.063827         0.601282         0.397016
 C         0.764867        -0.747327        -0.358455
 H        -1.924776         1.980561         0.637282
 H        -1.052990         3.456265         0.207337
 H        -1.430699         2.411312        -0.902658
 H         1.633040         0.222363         2.508567
 H         2.599750         3.089194         1.562746
 H         3.660845         1.729970         0.933280
 H         2.292627         3.033245        -1.467354
 H        -0.086903        -1.361978        -0.023364
 H         0.735942        -0.549702        -1.475874
 H         1.754316        -1.499277        -0.417626
