19
Iteration:  3627charge 0 multiplicity 1
 C        -0.940362         2.361055        -0.062128
 C         0.254316         1.827772         0.583081
 O         0.302898         1.914424         2.097578
 C         1.478961         1.069766         1.857957
 C         2.540173         1.987181         1.180387
 C         1.614319         1.908125        -0.006868
 O         1.703333         2.483258        -1.281963
 C         0.988446         0.537685         0.439236
 C         0.969644        -0.888665        -0.147556
 H        -1.895006         1.935650         0.375553
 H        -1.003346         3.349137         0.380437
 H        -0.803221         2.111190        -1.184749
 H         1.737479         0.299402         2.531782
 H         2.841025         2.912332         1.658580
 H         3.507384         1.427011         1.018828
 H         2.359208         1.969691        -1.827177
 H         0.548556        -1.668418         0.365480
 H         0.393595        -0.806269        -1.071102
 H         2.033270        -1.150220        -0.441749
