19
Iteration:   842charge 0 multiplicity 1
 C        -1.166165         2.227940         0.005769
 C         0.142812         1.759991         0.540326
 O         0.299857         1.806861         2.037908
 C         1.560287         1.103625         1.888711
 C         2.560219         2.136478         1.259491
 C         1.696700         1.893849        -0.029480
 O         1.956342         2.430759        -1.394448
 C         1.022830         0.574280         0.489339
 C         0.816468        -0.751293        -0.152378
 H        -1.934433         1.769311         0.673494
 H        -1.218807         3.295825         0.123928
 H        -1.440033         2.167110        -0.996579
 H         1.891347         0.422510         2.762063
 H         2.704934         3.154443         1.754897
 H         3.586553         1.790752         1.098293
 H         2.714688         1.930897        -1.732185
 H         0.307205        -1.398929         0.553506
 H         0.481093        -0.691686        -1.163008
 H         1.903860        -1.211512        -0.414654
