19
Iteration:  4206charge 0 multiplicity 1
 C        -0.995211         2.296712        -0.023255
 C         0.252387         1.870225         0.578244
 O         0.386958         1.895538         2.060638
 C         1.579717         0.979681         1.831007
 C         2.596318         1.856040         1.134069
 C         1.639193         1.947758         0.026550
 O         1.824927         2.444674        -1.305937
 C         0.987467         0.594651         0.469746
 C         0.696799        -0.767757        -0.140073
 H        -1.788181         1.586406         0.452956
 H        -1.191226         3.375360        -0.134474
 H        -0.935184         2.005825        -1.077720
 H         1.837131         0.347215         2.741365
 H         2.926053         2.700159         1.840094
 H         3.446629         1.262970         0.754374
 H         1.880284         3.396346        -1.327197
 H         0.011695        -1.295285         0.443415
 H         0.361301        -0.526088        -1.084255
 H         1.679438        -1.256012        -0.219212
