19
Iteration:  4333
 C        -1.132308         2.394864         0.058157
 C         0.108911         1.899456         0.599024
 O         0.477179         1.985531         2.067578
 C         1.577616         1.063518         1.927297
 C         2.631893         1.843894         1.170755
 C         1.617557         1.858235         0.028479
 O         1.877646         2.208421        -1.280091
 C         0.930859         0.592055         0.466385
 C         0.885742        -0.684701        -0.374216
 H        -1.926320         1.735298         0.244045
 H        -1.657568         3.290808         0.340698
 H        -0.908432         2.229769        -1.029428
 H         1.724266         0.592056         2.925847
 H         2.997800         2.747156         1.626735
 H         3.476309         1.204749         0.824630
 H         1.162322         2.878752        -1.419958
 H         0.087378        -1.455546         0.053766
 H         0.707243        -0.440310        -1.498451
 H         1.921331        -1.128398        -0.194097
