19
Iteration:  2510charge 0 multiplicity 1
 C        -1.081966         2.294308         0.098337
 C         0.180222         1.785526         0.584748
 O         0.274546         1.780106         2.037638
 C         1.523406         1.136419         1.899148
 C         2.497297         2.140221         1.243839
 C         1.604985         1.949457        -0.085326
 O         1.921216         2.399423        -1.334629
 C         1.097352         0.550217         0.464543
 C         0.898005        -0.812713        -0.265151
 H        -1.934818         1.644822         0.478689
 H        -1.215435         3.237160         0.570774
 H        -1.017671         2.365106        -1.046686
 H         1.985468         0.480189         2.857434
 H         2.493663         3.199274         1.691703
 H         3.486391         1.654772         1.101779
 H         2.388662         1.747211        -1.904763
 H         0.168540        -1.458139         0.217704
 H         0.547893        -0.656975        -1.277566
 H         2.026456        -1.237111        -0.240045
