19
Iteration:  1375charge 0 multiplicity 1
 C        -1.043504         2.255068        -0.212094
 C         0.200946         1.797855         0.682793
 O         0.419557         1.860145         2.149841
 C         1.565107         1.188526         1.938513
 C         2.518008         2.087007         1.253505
 C         1.572321         1.907421        -0.005399
 O         1.793757         2.243243        -1.360065
 C         1.099246         0.560210         0.525478
 C         0.786298        -0.674981        -0.289895
 H        -1.896439         1.497264         0.063286
 H        -1.187058         3.337698         0.123936
 H        -0.783806         2.357037        -1.218380
 H         1.833085         0.719169         2.851040
 H         2.759365         3.013739         1.886705
 H         3.460420         1.575635         1.017636
 H         2.643661         1.805764        -1.632309
 H         0.069504        -1.169425         0.338032
 H         0.392091        -0.422775        -1.195346
 H         1.608514        -1.454731        -0.599977
