19
Iteration:  4065charge 0 multiplicity 1
 C        -0.995275         2.412339        -0.042195
 C         0.270406         1.933131         0.609909
 O         0.373241         1.856885         2.081861
 C         1.501500         0.990617         1.886497
 C         2.631031         1.903806         1.117644
 C         1.673443         1.841658        -0.063649
 O         1.691688         2.440354        -1.239289
 C         0.964784         0.557642         0.482306
 C         0.866015        -0.816878        -0.217293
 H        -1.921674         1.803539         0.325200
 H        -1.264162         3.434149         0.138126
 H        -0.996492         2.481410        -1.094116
 H         1.723308         0.408148         2.841632
 H         2.903573         2.936268         1.391171
 H         3.519185         1.293996         1.061254
 H         2.486847         2.933881        -1.389940
 H         0.149598        -1.478685         0.407915
 H         0.215689        -0.732148        -1.162040
 H         1.894975        -1.337829        -0.296498
