19
Iteration:  4001
 C        -0.992726         2.270533         0.037118
 C         0.285875         1.850604         0.646606
 O         0.293715         1.826321         2.071006
 C         1.566900         1.033335         1.835907
 C         2.541604         2.013357         1.162958
 C         1.666372         1.887577        -0.029897
 O         1.928102         2.507285        -1.300892
 C         1.035274         0.523598         0.375845
 C         0.733176        -0.730935        -0.164796
 H        -1.825278         1.925345         0.693487
 H        -0.940402         3.356981         0.164244
 H        -1.038108         1.910604        -0.954026
 H         1.773569         0.238448         2.610646
 H         2.589282         2.980042         1.628742
 H         3.469344         1.529394         1.069044
 H         1.420772         2.091347        -2.012122
 H         0.028479        -1.191333         0.520410
 H         0.143391        -0.605204        -1.091629
 H         1.498268        -1.377021        -0.334591
