19
Iteration:  4572
 C        -1.046902         2.425061         0.046721
 C         0.146193         1.802987         0.664923
 O         0.369712         1.917047         2.105773
 C         1.537500         0.971390         1.879915
 C         2.593166         1.936619         1.194453
 C         1.604817         1.965551        -0.024292
 O         1.855399         2.267380        -1.379617
 C         1.064650         0.592597         0.438817
 C         0.859812        -0.757891        -0.276377
 H        -1.928731         2.103714         0.594198
 H        -0.918616         3.446632         0.426774
 H        -1.000586         2.200714        -1.090863
 H         1.655117         0.344451         2.831532
 H         2.971767         2.881239         1.664650
 H         3.503807         1.397928         0.768972
 H         1.339324         3.108426        -1.442624
 H        -0.052359        -1.298995         0.048659
 H         0.656057        -0.513852        -1.377441
 H         1.761636        -1.495245        -0.151865
