19
Iteration:  2962charge 0 multiplicity 1
 C        -1.121641         2.161631        -0.008091
 C         0.215699         1.883625         0.575632
 O         0.361582         1.992191         2.047229
 C         1.471092         0.991223         1.861115
 C         2.584345         1.923847         1.184797
 C         1.608114         1.985265         0.042654
 O         1.822921         2.361544        -1.244253
 C         1.016135         0.633646         0.447851
 C         0.978661        -0.629683        -0.268235
 H        -1.718171         1.419825         0.466641
 H        -1.308593         3.238494         0.015143
 H        -1.210032         1.787931        -1.039791
 H         1.563363         0.345040         2.863732
 H         2.851922         2.832412         1.775375
 H         3.340708         1.183596         0.928533
 H         2.206736         1.580306        -1.707806
 H         0.200695        -1.342100        -0.002360
 H         0.908344        -0.478792        -1.284075
 H         1.878437        -1.236938         0.091028
