19
Iteration:   114charge 0 multiplicity 1
 C        -1.087731         2.164245        -0.061945
 C         0.249002         1.876176         0.577005
 O         0.347944         2.027293         2.007936
 C         1.467435         1.062907         1.844635
 C         2.657417         1.846131         1.194484
 C         1.649151         1.990073         0.008574
 O         1.753797         2.473472        -1.310893
 C         0.948917         0.535902         0.470933
 C         0.942886        -0.770656        -0.085847
 H        -1.787298         1.437532         0.473070
 H        -1.500810         3.178341         0.320881
 H        -1.081959         2.183228        -1.242790
 H         1.622115         0.396140         2.687772
 H         3.108998         2.697465         1.641746
 H         3.456040         1.203514         0.889355
 H         2.594868         2.407111        -1.752555
 H         0.078134        -1.462327         0.413373
 H         0.882287        -0.813920        -1.162398
 H         1.764953        -1.314399         0.183521
