19
Iteration:  2645
 C        -1.039764         2.336869         0.034872
 C         0.189703         1.746976         0.564094
 O         0.264542         1.749048         1.998571
 C         1.537669         1.094002         1.878079
 C         2.468304         2.090360         1.174913
 C         1.586564         1.940459        -0.062416
 O         1.884284         2.434006        -1.319943
 C         1.052310         0.581900         0.397778
 C         0.962434        -0.812479        -0.060499
 H        -1.858373         1.758307         0.390341
 H        -1.077266         3.373706         0.526793
 H        -1.165780         2.532391        -1.008075
 H         1.868934         0.355012         2.482352
 H         2.565271         3.014260         1.715203
 H         3.456912         1.764315         0.980933
 H         2.849161         2.458583        -1.393978
 H         0.393829        -1.407092         0.677991
 H         0.327387        -0.898056        -1.040903
 H         1.862259        -1.252372        -0.335938
