19
Iteration:  1580charge 0 multiplicity 1
 C        -1.150791         2.185136         0.014919
 C         0.220189         1.860699         0.550453
 O         0.314966         1.996286         1.967521
 C         1.580534         1.139093         1.937772
 C         2.623466         1.972314         1.231679
 C         1.696738         1.911941        -0.014765
 O         1.869904         2.343493        -1.257730
 C         0.989445         0.604655         0.482066
 C         0.818925        -0.756553        -0.257824
 H        -1.741628         1.333120         0.371686
 H        -1.613216         3.154786         0.402048
 H        -1.264655         2.112361        -1.052992
 H         1.712075         0.453929         2.865231
 H         2.921280         2.903418         1.726925
 H         3.485771         1.335468         1.056644
 H         2.567761         1.860703        -1.749710
 H         0.109655        -1.411065         0.260685
 H         0.453873        -0.651581        -1.367984
 H         1.765636        -1.155327        -0.220747
