19
Iteration:  2116charge 0 multiplicity 1
 C        -1.065632         2.128782        -0.159956
 C         0.239611         1.831102         0.627560
 O         0.354452         1.849008         2.075796
 C         1.647270         1.083228         1.889900
 C         2.550423         2.080989         1.248542
 C         1.611328         2.000162        -0.006762
 O         1.764119         2.347966        -1.308670
 C         1.197397         0.559537         0.445836
 C         0.701147        -0.726747        -0.164487
 H        -2.007364         1.556271         0.086100
 H        -1.200214         3.263891        -0.077877
 H        -0.769281         1.999478        -1.129093
 H         1.806228         0.527410         2.777939
 H         2.491222         3.097706         1.709429
 H         3.616035         1.752865         1.157324
 H         2.676287         2.645321        -1.395237
 H        -0.010335        -1.196740         0.531120
 H         0.088765        -0.475329        -1.092024
 H         1.529817        -1.442150        -0.427346
