19
Iteration:  4336
 C        -1.153549         2.404676         0.032107
 C         0.137766         1.897561         0.602966
 O         0.473334         1.992624         2.075133
 C         1.577579         1.059197         1.932541
 C         2.654814         1.843453         1.152416
 C         1.600143         1.876312         0.062957
 O         1.883490         2.215974        -1.295482
 C         0.940689         0.566711         0.488014
 C         0.861442        -0.692317        -0.377853
 H        -2.000135         1.749646         0.233957
 H        -1.690846         3.306338         0.373217
 H        -0.937545         2.191532        -0.976669
 H         1.693484         0.517179         2.944493
 H         2.959397         2.807223         1.589139
 H         3.478681         1.247516         0.834099
 H         1.221303         2.924581        -1.461445
 H         0.173481        -1.500842        -0.067869
 H         0.767521        -0.506335        -1.430181
 H         1.903776        -1.175221        -0.246321
