19
Iteration:  3290charge 0 multiplicity 1
 C        -0.984946         2.261468        -0.123941
 C         0.245582         1.730781         0.586307
 O         0.351833         1.931044         1.992580
 C         1.581323         1.009712         1.883830
 C         2.552665         2.073896         1.290185
 C         1.716477         1.885540        -0.009929
 O         1.701535         2.477827        -1.328598
 C         1.121335         0.513095         0.514184
 C         0.734960        -0.775813        -0.126438
 H        -1.903717         1.611391        -0.027512
 H        -1.176769         3.234992         0.393511
 H        -0.895320         2.428087        -1.243735
 H         1.827320         0.375331         2.761864
 H         2.539485         3.109137         1.708198
 H         3.523117         1.557264         1.102034
 H         2.658531         2.369468        -1.547983
 H        -0.125096        -1.289291         0.438902
 H         0.286603        -0.430469        -1.060326
 H         1.498958        -1.521888        -0.338932
