19
Iteration:  3889
 C        -0.925009         2.386399        -0.010597
 C         0.153597         1.784039         0.711861
 O         0.318013         1.875899         2.091921
 C         1.597126         1.035555         1.884953
 C         2.530682         2.008961         1.166035
 C         1.607775         1.922999        -0.025988
 O         1.782597         2.417798        -1.305685
 C         1.029039         0.535989         0.475900
 C         0.892159        -0.772054        -0.273942
 H        -1.933778         1.893064        -0.018546
 H        -1.171435         3.342334         0.351575
 H        -0.889513         2.339950        -1.141564
 H         1.860693         0.527550         2.812048
 H         2.712411         2.926775         1.698040
 H         3.450323         1.479179         0.870762
 H         1.731123         1.614336        -1.847099
 H         0.200100        -1.476283         0.176860
 H         0.704208        -0.553055        -1.325947
 H         1.796531        -1.243093        -0.306210
