19
Iteration:  3916
 C        -1.131299         2.285086        -0.047621
 C         0.234434         1.859474         0.616309
 O         0.374199         1.926790         2.057962
 C         1.539044         1.002435         1.868835
 C         2.655567         1.922770         1.197709
 C         1.659810         1.916207         0.054487
 O         1.701412         2.320665        -1.274038
 C         1.084839         0.625968         0.458251
 C         0.859205        -0.679246        -0.263869
 H        -1.879050         1.573326         0.262433
 H        -1.540703         3.333621         0.239903
 H        -1.284688         2.298490        -1.114752
 H         1.661602         0.399042         2.791479
 H         2.892265         2.877879         1.755784
 H         3.559856         1.346365         0.949543
 H         2.637806         2.349146        -1.564102
 H         0.045999        -1.225083         0.226359
 H         0.720039        -0.405374        -1.314686
 H         1.850946        -1.329707        -0.399562
