19
Iteration:  4148charge 0 multiplicity 1
 C        -1.119817         2.349456         0.127755
 C         0.220317         1.788447         0.554305
 O         0.394973         1.916948         2.126576
 C         1.508526         1.050660         1.938891
 C         2.539377         1.953835         1.211438
 C         1.664593         1.931044        -0.065639
 O         1.972104         2.245730        -1.335515
 C         1.091445         0.580982         0.474746
 C         0.742303        -0.639497        -0.357848
 H        -1.854000         1.700058         0.539214
 H        -1.173645         3.397722         0.600741
 H        -1.154067         2.168576        -0.983185
 H         1.680550         0.421105         2.790877
 H         2.862666         2.916196         1.644611
 H         3.446654         1.405357         0.845648
 H         1.232590         2.557672        -1.922531
 H        -0.025384        -1.237309         0.066665
 H         0.535725        -0.395836        -1.375763
 H         1.523304        -1.350025        -0.481788
