19
Iteration:  2352charge 0 multiplicity 1
 C        -1.124631         2.097727         0.126883
 C         0.224083         1.706024         0.506114
 O         0.296489         1.849375         1.964933
 C         1.580071         1.103002         1.864946
 C         2.479601         2.122283         1.262778
 C         1.628533         1.996972        -0.017407
 O         1.995080         2.495958        -1.297893
 C         1.186959         0.537746         0.415187
 C         0.723480        -0.721307        -0.203913
 H        -1.843015         1.683223         0.731629
 H        -1.236549         3.184031         0.237344
 H        -1.332490         1.827110        -0.883100
 H         1.903826         0.656020         2.696858
 H         2.353273         3.087992         1.761210
 H         3.568271         1.869533         1.058151
 H         2.472797         1.727559        -1.653473
 H        -0.207619        -1.069204         0.270801
 H         0.590227        -0.644883        -1.300178
 H         1.392339        -1.581969        -0.071437
