19
Iteration:  3961charge 0 multiplicity 1
 C        -1.148239         2.194553         0.082817
 C         0.164162         1.879970         0.578154
 O         0.363548         1.938995         2.042095
 C         1.606858         1.003725         1.836101
 C         2.579440         1.966886         1.128069
 C         1.639470         1.896636        -0.012700
 O         2.028517         2.322725        -1.209199
 C         1.033396         0.625647         0.485227
 C         0.727748        -0.693238        -0.274293
 H        -1.956303         1.629063         0.463489
 H        -1.500128         3.303457         0.161139
 H        -1.288739         1.899664        -0.993134
 H         2.007120         0.376834         2.622650
 H         2.764418         3.014249         1.501511
 H         3.529004         1.470780         0.762936
 H         1.455996         3.113024        -1.335506
 H        -0.007932        -1.234413         0.355143
 H         0.517724        -0.491866        -1.328307
 H         1.679828        -1.392263        -0.431278
