19
Iteration:  1611charge 0 multiplicity 1
 C        -1.060080         2.220517        -0.036935
 C         0.203218         1.755381         0.579770
 O         0.378988         2.100380         2.034198
 C         1.521559         1.092993         1.917315
 C         2.542292         1.888961         1.120145
 C         1.577802         1.905248        -0.069751
 O         1.851605         2.441597        -1.265638
 C         0.975338         0.542188         0.548099
 C         0.901103        -0.766570        -0.150617
 H        -1.676626         1.402896         0.076219
 H        -1.514955         3.061251         0.519295
 H        -1.118571         2.452231        -1.191450
 H         1.638206         0.221908         2.630582
 H         2.892560         2.760701         1.624691
 H         3.373619         1.193714         0.877925
 H         2.715911         2.234297        -1.653425
 H         0.075356        -1.416132         0.239026
 H         0.862301        -0.600491        -1.315649
 H         1.820430        -1.264681        -0.016056
