19
Iteration:   888
 C        -1.091219         2.268445        -0.101828
 C         0.164456         1.736792         0.573852
 O         0.371804         1.863308         2.048803
 C         1.554055         1.064998         1.873153
 C         2.571303         2.015699         1.184910
 C         1.722860         1.910868        -0.016290
 O         1.735434         2.512974        -1.291010
 C         0.993619         0.577609         0.464560
 C         0.875298        -0.807158        -0.111811
 H        -1.969294         1.868035         0.263673
 H        -1.130618         3.341667        -0.139852
 H        -1.008717         2.079289        -1.165602
 H         1.873442         0.512826         2.815769
 H         2.696120         3.004948         1.723569
 H         3.577794         1.559991         1.285928
 H         2.569627         2.192731        -1.609852
 H         0.052394        -1.359502         0.321628
 H         0.949943        -0.673073        -1.116217
 H         1.876757        -1.382720         0.077299
