19
Iteration:  2711charge 0 multiplicity 1
 C        -1.034218         2.247491        -0.111489
 C         0.187025         1.777403         0.549368
 O         0.324049         1.952617         2.039047
 C         1.518965         1.106650         1.990387
 C         2.600476         1.936739         1.214439
 C         1.637524         1.832046         0.020557
 O         1.662732         2.459060        -1.251712
 C         1.027517         0.518020         0.592062
 C         1.052117        -0.691787        -0.289584
 H        -1.745121         1.485558         0.064397
 H        -1.281549         3.297015         0.233592
 H        -0.900260         2.363187        -1.128990
 H         1.449633         0.514653         2.834485
 H         2.853902         2.952186         1.485227
 H         3.518479         1.407944         1.048698
 H         2.085775         1.879197        -1.933659
 H         0.271649        -1.430893        -0.005444
 H         0.780265        -0.283830        -1.363929
 H         1.995029        -1.117814        -0.428958
