19
Iteration:  3711charge 0 multiplicity 1
 C        -1.141945         2.261632        -0.067088
 C         0.177961         1.741530         0.601765
 O         0.341652         1.839885         2.086782
 C         1.585114         1.036441         1.818597
 C         2.619432         2.121546         1.239165
 C         1.677515         2.007002         0.025775
 O         1.874205         2.430382        -1.327883
 C         1.076423         0.570812         0.485971
 C         0.787497        -0.795684        -0.165297
 H        -1.971120         1.580199         0.122172
 H        -1.275421         3.409306         0.174799
 H        -0.962690         2.356327        -1.146621
 H         1.971631         0.256177         2.499004
 H         2.539547         3.014188         1.855039
 H         3.648803         1.787986         1.082016
 H         2.103181         1.668683        -1.862617
 H        -0.202577        -1.276223         0.250390
 H         0.457307        -0.507476        -1.224939
 H         1.554425        -1.559703        -0.172480
