19
Iteration:  1905charge 0 multiplicity 1
 C        -1.072556         2.159066        -0.079511
 C         0.139880         1.907971         0.675214
 O         0.321687         1.921322         2.079759
 C         1.490693         1.063069         1.887125
 C         2.664001         1.971182         1.141033
 C         1.665755         1.916222        -0.017611
 O         1.878855         2.499674        -1.343946
 C         0.918593         0.630736         0.425713
 C         0.866984        -0.804592        -0.056455
 H        -1.913361         1.714890         0.311897
 H        -1.306857         3.214810        -0.222870
 H        -0.876870         1.867245        -1.195213
 H         1.586937         0.151634         2.491211
 H         3.087074         2.892012         1.565331
 H         3.505454         1.182210         0.990977
 H         2.663771         1.997526        -1.685987
 H         0.399089        -1.545573         0.598197
 H         0.300170        -0.837346        -0.930262
 H         1.955423        -1.113381        -0.416427
