19
Iteration:  1964charge 0 multiplicity 1
 C        -1.002236         2.261885        -0.030223
 C         0.251841         1.767182         0.614581
 O         0.311919         1.897904         2.089276
 C         1.601245         1.143602         1.987345
 C         2.461775         2.154688         1.196130
 C         1.691373         1.768951        -0.056799
 O         1.821587         2.305301        -1.329721
 C         1.051611         0.545272         0.518738
 C         0.803128        -0.728517        -0.312513
 H        -1.847951         1.982029         0.706725
 H        -0.843856         3.413765        -0.033169
 H        -1.265408         1.907309        -0.940468
 H         1.946990         0.648166         2.868524
 H         2.144031         3.214740         1.505886
 H         3.542118         2.075783         1.412107
 H         2.377281         1.751370        -1.874040
 H        -0.103123        -1.303458        -0.052456
 H         0.702714        -0.187325        -1.375791
 H         1.603025        -1.348388        -0.393226
