19
Iteration:  1488charge 0 multiplicity 1
 C        -1.016862         2.334357        -0.130373
 C         0.247556         1.743853         0.568360
 O         0.386945         1.965363         2.009279
 C         1.478281         1.068893         1.883387
 C         2.608266         1.934348         1.258308
 C         1.692981         1.970861         0.032016
 O         1.673730         2.500561        -1.328532
 C         1.016492         0.530607         0.530163
 C         0.851785        -0.888188        -0.102525
 H        -1.960445         2.005637         0.346846
 H        -0.911685         3.385775        -0.190052
 H        -1.144033         2.005949        -1.266251
 H         1.632428         0.369443         2.658455
 H         2.937817         2.902724         1.669129
 H         3.425729         1.197998         1.055442
 H         2.540545         2.440351        -1.818866
 H         0.240106        -1.603543         0.495986
 H         0.490511        -0.868318        -1.157719
 H         1.925437        -1.250596        -0.172602
