19
Iteration:  4482charge 0 multiplicity 1
 C        -1.064308         2.258345         0.000156
 C         0.239099         1.948502         0.674775
 O         0.410954         2.008894         2.131340
 C         1.517273         1.046487         1.855090
 C         2.638273         1.843074         1.169784
 C         1.674660         1.937213         0.057508
 O         1.875845         2.347171        -1.301757
 C         0.966292         0.575088         0.364345
 C         0.761982        -0.814412        -0.276384
 H        -1.977543         1.637130         0.270920
 H        -1.441429         3.233301         0.322702
 H        -1.163154         2.212308        -1.112127
 H         1.857617         0.454871         2.638199
 H         3.069526         2.733866         1.629351
 H         3.455689         1.127029         0.878814
 H         1.227110         3.046209        -1.466018
 H         0.205233        -1.446840         0.376592
 H         0.310048        -0.571057        -1.272925
 H         1.774521        -1.283975        -0.695215
