19
Iteration:  2461
 C        -1.072550         2.353936         0.001012
 C         0.173453         1.848679         0.635991
 O         0.252970         1.833549         2.038762
 C         1.537898         0.964324         1.819444
 C         2.491496         2.009366         1.210840
 C         1.570760         1.994896        -0.018497
 O         1.888555         2.513784        -1.352997
 C         1.011435         0.566930         0.378248
 C         1.078290        -0.882656        -0.068938
 H        -1.846238         1.667840         0.298482
 H        -1.267604         3.375185         0.482995
 H        -1.023231         2.464041        -1.057297
 H         1.853106         0.509708         2.625354
 H         2.666114         2.941267         1.734983
 H         3.461453         1.514206         0.913998
 H         2.059893         1.676714        -1.808982
 H         0.577465        -1.563588         0.642104
 H         0.398910        -0.869228        -0.969308
 H         2.058445        -1.163700        -0.353598
