19
Iteration:  3853charge 0 multiplicity 1
 C        -1.004166         2.493399         0.010050
 C         0.155652         1.773137         0.613825
 O         0.313393         1.767769         1.990515
 C         1.599143         1.022462         1.798702
 C         2.498129         2.059654         1.142768
 C         1.597433         1.916328         0.007612
 O         1.879542         2.342982        -1.246987
 C         0.994804         0.583998         0.435421
 C         0.937442        -0.829510        -0.119368
 H        -1.793049         1.958648         0.465869
 H        -0.937690         3.540099         0.462748
 H        -0.882172         2.643114        -1.098811
 H         1.945453         0.442286         2.635161
 H         2.514468         3.069063         1.651306
 H         3.572420         1.785495         0.919997
 H         1.017600         2.533570        -1.640701
 H         0.393483        -1.656692         0.388463
 H         0.437194        -0.842745        -1.092324
 H         2.001662        -1.119192        -0.276611
