19
Iteration:  1143
 C        -1.145218         2.246520         0.034665
 C         0.239976         1.830395         0.536537
 O         0.308611         1.859603         1.964057
 C         1.528955         1.085986         1.859326
 C         2.461229         2.076068         1.194828
 C         1.618604         1.851075        -0.049289
 O         1.946334         2.389989        -1.257466
 C         1.147238         0.584525         0.456254
 C         0.834221        -0.725969        -0.125873
 H        -1.828281         1.662308         0.676904
 H        -1.237789         3.292643         0.412759
 H        -1.509797         2.452082        -1.016686
 H         1.724237         0.376424         2.736486
 H         2.501330         3.044736         1.687066
 H         3.530852         1.645345         1.070580
 H         2.537425         1.843538        -1.853453
 H         0.388887        -1.340958         0.648295
 H         0.496348        -0.627942        -1.074120
 H         1.795173        -1.353941        -0.494203
