19
Iteration:  3808charge 0 multiplicity 1
 C        -1.167707         2.278620         0.028210
 C         0.173637         1.853396         0.594867
 O         0.301966         1.916945         2.053884
 C         1.575748         1.026915         1.851290
 C         2.665279         1.909441         1.182852
 C         1.654095         1.890063        -0.062516
 O         1.859986         2.434192        -1.327383
 C         0.936962         0.578820         0.423072
 C         0.934700        -0.790507        -0.165169
 H        -1.890798         1.686376         0.525756
 H        -1.453820         3.413023         0.109303
 H        -1.050628         2.090215        -1.008510
 H         1.753672         0.496512         2.799871
 H         2.740907         2.929238         1.694809
 H         3.696044         1.479024         1.153042
 H         2.421217         3.212658        -1.337274
 H         0.307589        -1.482552         0.378002
 H         0.381605        -0.872399        -1.064455
 H         1.923572        -1.164447        -0.131376
