19
Iteration:  2165
 C        -1.164807         2.076504        -0.039453
 C         0.182840         1.866254         0.544886
 O         0.380773         2.072903         2.085910
 C         1.491465         1.067930         1.889931
 C         2.627041         1.909012         1.173876
 C         1.655865         1.925074        -0.013580
 O         1.830828         2.575847        -1.238613
 C         1.029758         0.559895         0.424797
 C         0.906317        -0.826786        -0.195714
 H        -1.722407         1.533870         0.681110
 H        -1.430511         3.091563        -0.134312
 H        -1.096210         1.472117        -1.062880
 H         1.729722         0.497022         2.846890
 H         3.036393         2.806391         1.758723
 H         3.403141         1.142414         1.012879
 H         2.138635         1.901912        -1.897970
 H        -0.093422        -1.249064         0.070700
 H         0.853828        -0.663671        -1.355483
 H         1.749184        -1.456815         0.090754
