19
Iteration:   501
 C        -0.992836         2.335383        -0.186786
 C         0.192405         1.799980         0.587848
 O         0.391653         1.965555         2.062694
 C         1.542321         1.126534         1.922868
 C         2.567648         2.006581         1.140501
 C         1.557383         1.924517         0.039040
 O         1.693216         2.438706        -1.188216
 C         1.003833         0.470905         0.517005
 C         0.999058        -0.887189        -0.233585
 H        -1.874964         1.843533         0.156939
 H        -1.285384         3.355121         0.065443
 H        -0.974612         2.206650        -1.305194
 H         1.687743         0.582389         2.873857
 H         2.716442         2.952088         1.678247
 H         3.448612         1.454870         0.884625
 H         2.452798         1.943538        -1.624629
 H         0.006997        -1.494116         0.141880
 H         0.871538        -0.709472        -1.343453
 H         1.846727        -1.547247         0.025622
