19
Iteration:    38charge 0 multiplicity 1
 C        -1.060683         2.428651        -0.068307
 C         0.140626         1.726405         0.623928
 O         0.272501         1.820336         2.170293
 C         1.531198         1.051762         1.901193
 C         2.490901         2.215584         1.200828
 C         1.692985         1.878762        -0.041936
 O         1.825653         2.225566        -1.390523
 C         1.211953         0.523399         0.489636
 C         0.915350        -0.679946        -0.216863
 H        -2.075573         2.093673         0.381789
 H        -0.802720         3.552936         0.147700
 H        -1.123813         2.491431        -1.249738
 H         1.767191         0.326179         2.671705
 H         2.316477         3.181276         1.664294
 H         3.550936         1.965886         1.220093
 H         2.115422         1.410543        -1.871729
 H         0.378385        -1.494059         0.524210
 H         0.230715        -0.349370        -1.006221
 H         1.702196        -1.286756        -0.635935
