19
Iteration:  1302charge 0 multiplicity 1
 C        -1.136230         2.311710         0.015383
 C         0.210078         1.789102         0.527124
 O         0.282820         1.931367         1.985444
 C         1.539272         1.108378         1.798459
 C         2.618090         1.934191         1.179784
 C         1.615425         1.882175        -0.034017
 O         1.868759         2.507829        -1.265550
 C         1.003507         0.550999         0.417276
 C         0.916540        -0.850277        -0.020910
 H        -1.868509         1.932421         0.775928
 H        -1.155042         3.392565        -0.025110
 H        -1.323939         1.916531        -0.947347
 H         1.703805         0.352107         2.536104
 H         2.673421         2.947484         1.632265
 H         3.579186         1.466005         1.109440
 H         2.740988         2.143528        -1.614312
 H         0.224082        -1.513048         0.594825
 H         0.586643        -0.728368        -1.156194
 H         1.905248        -1.275428        -0.044915
