19
Iteration:   951
 C        -1.120100         2.257761        -0.089085
 C         0.169873         1.833471         0.653845
 O         0.321424         2.012478         2.072224
 C         1.526392         1.031562         1.957171
 C         2.555255         1.995138         1.199106
 C         1.636862         1.870194        -0.018767
 O         1.788159         2.439688        -1.316038
 C         1.113637         0.520206         0.438952
 C         0.947836        -0.786922        -0.210038
 H        -2.014403         1.506313         0.088186
 H        -1.268881         3.311299         0.233432
 H        -0.915343         2.286944        -1.126578
 H         1.924629         0.497341         2.898882
 H         2.613408         2.983636         1.751431
 H         3.473899         1.431376         1.108840
 H         2.425889         1.885109        -1.740034
 H         0.245920        -1.511103         0.228627
 H         0.522544        -0.557571        -1.221722
 H         1.973260        -1.347436        -0.509436
