19
Iteration:  3107
 C        -1.078300         2.190984        -0.031982
 C         0.242184         1.913530         0.563387
 O         0.343156         1.993126         2.012929
 C         1.516452         1.060855         1.894567
 C         2.627730         1.925021         1.245700
 C         1.621448         1.918961        -0.030807
 O         1.793280         2.478777        -1.235919
 C         0.961675         0.539304         0.438701
 C         0.924369        -0.803489        -0.191389
 H        -1.782299         1.376438         0.204287
 H        -1.475953         3.117136         0.252914
 H        -0.986101         2.169536        -1.121653
 H         1.610552         0.508320         2.836886
 H         2.953719         2.914022         1.640747
 H         3.572807         1.380103         1.091110
 H         2.243529         1.880485        -1.829843
 H         0.091936        -1.446225         0.182244
 H         0.547173        -0.621308        -1.195530
 H         1.948483        -1.388969        -0.167607
