19
Iteration:  1525charge 0 multiplicity 1
 C        -0.962777         2.289274        -0.121697
 C         0.204997         1.774916         0.624176
 O         0.322693         1.811300         2.124594
 C         1.540673         1.117510         1.891086
 C         2.551925         2.189911         1.154030
 C         1.682300         1.888495        -0.030690
 O         1.824597         2.362793        -1.284008
 C         1.063081         0.557975         0.510869
 C         0.744501        -0.785438        -0.219756
 H        -1.896101         2.234471         0.399420
 H        -0.793101         3.406273        -0.151515
 H        -0.976496         1.879098        -1.117767
 H         1.798936         0.422829         2.819061
 H         2.532593         3.155952         1.638007
 H         3.549595         1.786186         1.308764
 H         2.396781         1.701502        -1.771688
 H         0.135711        -1.493742         0.353643
 H         0.108368        -0.587986        -1.181802
 H         1.586333        -1.313366        -0.456559
