19
Iteration:    95
 C        -1.207858         2.249628        -0.070942
 C         0.198623         1.864304         0.561740
 O         0.412423         2.007711         1.982105
 C         1.526392         1.090548         1.911253
 C         2.603140         1.826028         1.226596
 C         1.632250         1.845291        -0.019923
 O         1.728296         2.432170        -1.322119
 C         1.032048         0.588232         0.491558
 C         0.981857        -0.713951        -0.110965
 H        -2.074964         1.601622         0.311284
 H        -1.455502         3.325556         0.247799
 H        -0.922234         2.143937        -1.116889
 H         1.508102         0.410930         2.927426
 H         2.917992         2.741805         1.827040
 H         3.483236         1.101381         1.131085
 H         2.646902         2.275378        -1.641001
 H         0.325963        -1.524566         0.287360
 H         0.734852        -0.633847        -1.213069
 H         2.076661        -1.102903        -0.215109
