19
Iteration:   824
 C        -1.137061         2.189526         0.002717
 C         0.211627         1.843828         0.619102
 O         0.289037         1.885918         2.036441
 C         1.536173         1.070533         1.838679
 C         2.535569         2.030614         1.132297
 C         1.607720         1.951385        -0.014289
 O         1.907341         2.337379        -1.256170
 C         1.070237         0.609025         0.461614
 C         0.914596        -0.686074        -0.172625
 H        -1.915104         1.574837         0.367320
 H        -1.446081         3.268000         0.136510
 H        -0.964190         1.909598        -1.098509
 H         1.773924         0.459735         2.727049
 H         2.573756         3.044223         1.578664
 H         3.539445         1.592349         1.063385
 H         2.729920         1.947288        -1.583226
 H         0.385013        -1.461742         0.447755
 H         0.211412        -0.539104        -0.995400
 H         1.798207        -1.101346        -0.555328
