19
Iteration:    62charge 0 multiplicity 1
 C        -0.991102         2.339461        -0.002886
 C         0.189702         1.799167         0.669501
 O         0.301394         1.861764         2.044177
 C         1.584356         1.199954         1.925977
 C         2.505877         2.093071         1.171448
 C         1.564132         1.934264        -0.005991
 O         1.841736         2.261977        -1.295900
 C         0.983343         0.504774         0.430805
 C         0.901256        -0.764862        -0.250100
 H        -1.994415         1.908044         0.316349
 H        -0.929466         3.474101         0.098926
 H        -0.934713         2.330659        -1.110498
 H         1.805799         0.469436         2.850585
 H         2.623795         3.138637         1.619516
 H         3.540643         1.648904         0.971863
 H         2.348336         1.559068        -1.669067
 H         0.626573        -1.681813         0.353029
 H         0.403014        -0.704185        -1.252017
 H         2.057411        -1.024507        -0.431729
