19
Iteration:  1685charge 0 multiplicity 1
 C        -0.989481         2.418847        -0.078833
 C         0.221450         1.771832         0.553191
 O         0.311372         1.851678         2.058762
 C         1.575654         1.104503         1.866356
 C         2.520997         2.178775         1.208464
 C         1.681041         1.864380         0.022489
 O         1.739641         2.383399        -1.244407
 C         1.112017         0.486375         0.444595
 C         0.799393        -0.937374        -0.171581
 H        -2.004434         2.248619         0.384096
 H        -0.955556         3.493331         0.076426
 H        -0.990010         2.364231        -1.339692
 H         1.999749         0.649385         2.766769
 H         2.514475         3.257537         1.476802
 H         3.670589         1.816214         1.101316
 H         2.325733         1.901164        -1.907295
 H         0.232518        -1.453869         0.638723
 H         0.259086        -0.718195        -1.089308
 H         1.770366        -1.603768        -0.288764
