19
Iteration:   348
 C        -0.920109         2.263304        -0.100315
 C         0.269732         1.831045         0.581703
 O         0.321921         1.859938         2.056282
 C         1.534471         1.070683         1.967344
 C         2.485165         2.095015         1.180263
 C         1.612044         1.920985        -0.028457
 O         1.720259         2.403318        -1.319505
 C         1.112664         0.532258         0.526862
 C         0.839105        -0.784179        -0.172544
 H        -1.764148         1.697311         0.155072
 H        -1.285359         3.246139         0.156213
 H        -0.808876         2.310485        -1.185556
 H         2.004400         0.601480         2.788089
 H         2.701586         3.000281         1.579600
 H         3.377949         1.585894         1.087533
 H         2.377401         1.928595        -1.844947
 H        -0.116782        -1.367515         0.320736
 H         0.663328        -0.532359        -1.261153
 H         1.670173        -1.460736        -0.057936
