19
Iteration:   195charge 0 multiplicity 1
 C        -1.023407         2.224245        -0.115385
 C         0.265478         1.786272         0.553976
 O         0.314123         1.820568         1.992912
 C         1.547735         1.081330         1.875946
 C         2.606239         2.119023         1.296277
 C         1.654573         2.014664         0.038745
 O         1.728937         2.330717        -1.347208
 C         1.124052         0.570125         0.472025
 C         0.768921        -0.726224        -0.086526
 H        -1.909257         1.706658         0.356765
 H        -1.037363         3.334897         0.090041
 H        -0.979928         1.970888        -1.156872
 H         2.023870         0.528617         2.779723
 H         2.675649         3.129133         1.799837
 H         3.588406         1.581940         1.144337
 H         2.491949         1.983585        -1.784633
 H         0.084305        -1.281613         0.493004
 H         0.162716        -0.516811        -1.008210
 H         1.580060        -1.322480        -0.486433
