19
Iteration:  4722
 C        -1.092363         2.255272         0.022068
 C         0.225982         1.791359         0.669933
 O         0.407630         1.963338         2.062023
 C         1.572909         1.039594         1.956925
 C         2.629856         1.873986         1.212323
 C         1.640566         1.914489        -0.060507
 O         1.850915         2.319956        -1.353682
 C         0.957636         0.571713         0.487921
 C         0.781458        -0.624181        -0.333651
 H        -1.789671         1.469678         0.464727
 H        -1.130824         3.278571         0.583599
 H        -1.227480         2.213215        -1.076906
 H         1.718860         0.392441         2.847123
 H         2.937789         2.842656         1.700848
 H         3.619909         1.364510         0.953307
 H         1.471276         3.198275        -1.538509
 H        -0.054670        -1.231426        -0.032302
 H         0.693198        -0.301268        -1.400765
 H         1.732993        -1.261574        -0.313957
