19
Iteration:  4892charge 0 multiplicity 1
 C        -1.056680         2.114370         0.018514
 C         0.234764         1.825860         0.694229
 O         0.472802         1.975254         2.094938
 C         1.526479         1.081177         1.885182
 C         2.638856         1.835216         1.141269
 C         1.578151         1.955310        -0.006776
 O         1.865261         2.452365        -1.290685
 C         1.065593         0.577503         0.428799
 C         0.685493        -0.671484        -0.277746
 H        -1.773095         1.225962         0.151733
 H        -1.401245         3.120819         0.311205
 H        -0.776315         2.225534        -1.041858
 H         1.662395         0.410577         2.711783
 H         3.143381         2.642679         1.765393
 H         3.303903         1.158316         0.636561
 H         1.282117         3.232714        -1.477844
 H        -0.081390        -1.371153         0.179688
 H         0.298103        -0.342567        -1.268282
 H         1.568316        -1.386128        -0.451183
