19
Iteration:   299
 C        -0.995978         2.335429        -0.039387
 C         0.221513         1.827623         0.571740
 O         0.327029         1.817071         2.070446
 C         1.520760         1.084939         1.858402
 C         2.491043         2.104673         1.188489
 C         1.544436         1.922164        -0.035614
 O         1.813626         2.340769        -1.351115
 C         1.097930         0.559306         0.468718
 C         0.913695        -0.814184        -0.119125
 H        -1.948158         2.097781         0.460354
 H        -1.092456         3.415579         0.276770
 H        -1.092527         2.452252        -1.111338
 H         1.791317         0.364494         2.686553
 H         2.410653         3.094381         1.801226
 H         3.584395         1.832734         1.174666
 H         2.496672         1.789354        -1.799786
 H         0.090732        -1.371538         0.292296
 H         0.833625        -0.636743        -1.182425
 H         1.846661        -1.437873         0.150695
