19
Iteration:  4361
 C        -1.012577         2.332785         0.064220
 C         0.153487         1.801428         0.598307
 O         0.391636         1.976627         2.115486
 C         1.575291         1.028870         1.850082
 C         2.560186         1.905635         1.139988
 C         1.611932         1.894690        -0.005098
 O         1.872330         2.244488        -1.346689
 C         0.975236         0.582717         0.504776
 C         0.837038        -0.669296        -0.283249
 H        -2.023571         1.940587         0.475337
 H        -1.159463         3.370789         0.398975
 H        -1.013693         2.149607        -1.019040
 H         1.810881         0.505047         2.738811
 H         2.929576         2.807459         1.696171
 H         3.402852         1.243901         0.867728
 H         1.791748         3.240019        -1.314952
 H         0.015355        -1.239486         0.047653
 H         0.660179        -0.379198        -1.320387
 H         1.655601        -1.337243        -0.318173
