19
Iteration:  2456charge 0 multiplicity 1
 C        -1.061800         2.357966        -0.008891
 C         0.181902         1.836132         0.622288
 O         0.264372         1.858407         2.035986
 C         1.500803         0.995763         1.827504
 C         2.509870         1.970938         1.163353
 C         1.564485         1.964442        -0.019601
 O         1.855305         2.522817        -1.312306
 C         1.029315         0.577588         0.436395
 C         1.071257        -0.881805        -0.101183
 H        -1.771846         1.549840         0.318140
 H        -1.188235         3.310627         0.452708
 H        -1.019831         2.455269        -1.155632
 H         1.791088         0.357888         2.841816
 H         2.643014         2.969580         1.648562
 H         3.505566         1.598348         0.996519
 H         2.131171         1.848679        -1.993274
 H         0.587269        -1.563954         0.601146
 H         0.411622        -0.887609        -0.980419
 H         2.135107        -1.213672        -0.367052
