19
Iteration:  3079
 C        -1.127307         2.265654        -0.015441
 C         0.136057         1.708254         0.561913
 O         0.284557         1.910721         2.023384
 C         1.559586         1.049370         1.837078
 C         2.621220         2.002733         1.167038
 C         1.581541         1.944327        -0.086759
 O         1.922851         2.542253        -1.254350
 C         1.077291         0.524165         0.414326
 C         0.859386        -0.832187        -0.050425
 H        -2.040780         1.644646         0.060124
 H        -1.180642         3.316128         0.456512
 H        -1.003301         2.436181        -1.084230
 H         1.684027         0.502599         2.743372
 H         2.810073         2.983965         1.628534
 H         3.499273         1.398582         0.835708
 H         2.863386         2.400526        -1.378859
 H         0.282054        -1.406820         0.667236
 H         0.179809        -0.715624        -0.964368
 H         1.787759        -1.382931        -0.223580
