19
Iteration:  3500
 C        -1.097432         2.173028        -0.105378
 C         0.155094         1.893229         0.606125
 O         0.374625         1.916657         2.171239
 C         1.556047         1.025185         1.849042
 C         2.610250         1.949389         1.206558
 C         1.623685         1.916494        -0.083677
 O         1.867027         2.531389        -1.316592
 C         0.992579         0.588540         0.431696
 C         0.827098        -0.791306        -0.097119
 H        -1.784704         1.406077         0.094566
 H        -1.331048         3.128191         0.263357
 H        -0.944879         2.348799        -1.114447
 H         1.769903         0.243281         2.591335
 H         2.576746         2.991283         1.506949
 H         3.441788         1.420641         0.801917
 H         2.662905         2.127405        -1.758220
 H        -0.053485        -1.440962         0.420377
 H         0.674727        -0.739227        -1.193651
 H         1.808159        -1.329177         0.013391
