19
Iteration:  4091
 C        -1.056458         2.399715         0.091745
 C         0.146042         1.802700         0.680915
 O         0.353725         1.938071         2.043816
 C         1.596304         0.988327         1.852201
 C         2.584472         1.886755         1.200552
 C         1.589857         1.966502        -0.060526
 O         1.825760         2.284136        -1.327156
 C         1.054738         0.569812         0.439211
 C         0.867211        -0.741542        -0.258393
 H        -2.005043         1.926808         0.212724
 H        -1.285451         3.523547         0.345212
 H        -0.825653         2.548246        -1.004367
 H         1.724954         0.325032         2.693839
 H         2.877274         2.811543         1.662125
 H         3.470131         1.314574         0.915296
 H         2.306597         3.107010        -1.382732
 H         0.074434        -1.327806         0.185559
 H         0.348343        -0.607343        -1.197639
 H         1.752827        -1.283123        -0.264013
