19
Iteration:   558charge 0 multiplicity 1
 C        -1.173860         2.295471         0.034474
 C         0.168963         1.832327         0.576511
 O         0.299526         1.834673         1.953722
 C         1.535429         1.107794         1.816959
 C         2.564726         2.008243         1.164757
 C         1.611681         2.037373         0.005074
 O         1.925333         2.354660        -1.262612
 C         1.037538         0.597803         0.403345
 C         0.927361        -0.765201        -0.090918
 H        -1.829520         1.431917         0.318798
 H        -1.365683         3.283389         0.454811
 H        -1.045809         2.376599        -1.068162
 H         1.726653         0.419126         2.785457
 H         2.771065         2.866003         1.789765
 H         3.499228         1.563917         0.872501
 H         2.642455         1.781387        -1.544399
 H         0.143712        -1.507109         0.560249
 H         0.637193        -0.916869        -1.124617
 H         1.853574        -1.316285        -0.049787
