19
Iteration:  3046
 C        -1.054707         2.335410        -0.090169
 C         0.240987         1.830011         0.432584
 O         0.339958         1.729052         2.133641
 C         1.587817         0.999731         1.855278
 C         2.520122         2.119130         1.283098
 C         1.667548         1.965266        -0.015590
 O         1.837276         2.497249        -1.389813
 C         1.082314         0.582301         0.356067
 C         0.746888        -0.926964         0.004104
 H        -1.975123         1.753316         0.224255
 H        -1.217201         3.451052         0.224695
 H        -0.910377         2.368122        -1.152309
 H         1.736677         0.434341         2.709358
 H         2.380402         3.073930         1.795018
 H         3.596612         1.805310         1.150709
 H         2.743767         2.812772        -1.345292
 H         0.338240        -1.369094         0.914817
 H         0.029261        -0.921251        -0.923006
 H         1.647000        -1.523644        -0.429593
