19
Iteration:  2906
 C        -1.065964         2.391548         0.095231
 C         0.212182         1.756997         0.597561
 O         0.301775         1.890444         1.986314
 C         1.545483         1.065812         1.862705
 C         2.484945         2.198515         1.180985
 C         1.525712         1.875479        -0.017554
 O         1.903043         2.272553        -1.266876
 C         1.038509         0.462330         0.470736
 C         0.942062        -0.782620        -0.305600
 H        -1.863571         1.773720         0.454768
 H        -1.298619         3.382109         0.577247
 H        -1.061057         2.446826        -0.951873
 H         1.822591         0.506487         2.769367
 H         2.417853         3.149451         1.730156
 H         3.498948         1.828619         1.085093
 H         2.886620         2.234788        -1.285011
 H         0.167284        -1.348487         0.129030
 H         0.694107        -0.509011        -1.238634
 H         1.954662        -1.327611        -0.413716
