19
Iteration:  3085charge 0 multiplicity 1
 C        -1.164757         2.277156        -0.050756
 C         0.155854         1.714866         0.572668
 O         0.319945         1.918183         2.018948
 C         1.520567         1.076592         1.862495
 C         2.605433         1.970184         1.160216
 C         1.592309         1.962767        -0.058958
 O         1.911981         2.544791        -1.257225
 C         1.109742         0.505553         0.460522
 C         0.837065        -0.829823        -0.100249
 H        -2.049340         1.657852         0.131382
 H        -1.330159         3.199277         0.423344
 H        -1.103139         2.444326        -1.138718
 H         1.792681         0.600149         2.842124
 H         3.023894         2.836243         1.728951
 H         3.526033         1.455028         0.871380
 H         2.826292         2.330255        -1.582814
 H         0.249956        -1.478420         0.589137
 H         0.296386        -0.908279        -1.023272
 H         1.874274        -1.296403        -0.201980
