19
Iteration:  4778charge 0 multiplicity 1
 C        -1.016440         2.435036         0.096887
 C         0.105926         1.801825         0.691258
 O         0.437916         1.853324         2.075071
 C         1.543802         0.976219         1.843646
 C         2.543711         1.897120         1.173047
 C         1.585892         2.024002        -0.061889
 O         1.821136         2.295801        -1.394820
 C         0.913049         0.564783         0.544628
 C         0.973079        -0.722030        -0.285194
 H        -2.013478         2.072103         0.511320
 H        -0.985620         3.623094         0.220341
 H        -0.931058         2.319207        -1.028836
 H         1.746550         0.231305         2.681789
 H         2.847519         2.758872         1.797826
 H         3.424041         1.190174         0.930408
 H         1.608695         3.203878        -1.755391
 H         0.341348        -1.415076         0.143440
 H         0.701306        -0.548487        -1.324896
 H         2.022697        -1.183977        -0.107460
