19
Iteration:  2417charge 0 multiplicity 1
 C        -0.991919         2.208992        -0.164691
 C         0.228841         1.758715         0.598284
 O         0.351522         2.003019         2.023577
 C         1.565426         1.115406         1.962155
 C         2.638485         1.930220         1.188960
 C         1.567213         1.962224         0.053382
 O         1.594356         2.480836        -1.230915
 C         1.075876         0.469490         0.574018
 C         0.937485        -0.821129        -0.292827
 H        -1.852914         1.648706         0.044196
 H        -1.243840         3.315678        -0.042084
 H        -0.761737         2.090274        -1.250275
 H         1.666903         0.575292         2.776485
 H         2.830510         2.833160         1.783078
 H         3.570023         1.344854         0.913992
 H         2.492640         2.819964        -1.384257
 H         0.176147        -1.499489         0.172983
 H         0.543662        -0.636068        -1.357772
 H         1.874357        -1.347745        -0.381867
