19
Iteration:  2355charge 0 multiplicity 1
 C        -1.132530         2.109293         0.078517
 C         0.241336         1.709543         0.527574
 O         0.325541         1.816514         1.978581
 C         1.576165         1.119997         1.863505
 C         2.464733         2.135644         1.235130
 C         1.639378         2.046860        -0.016183
 O         1.980128         2.474157        -1.295428
 C         1.184383         0.540695         0.425024
 C         0.716278        -0.717935        -0.217437
 H        -1.876402         1.645125         0.788984
 H        -1.257733         3.203498         0.212744
 H        -1.371916         1.806575        -0.886909
 H         1.831225         0.441996         2.762614
 H         2.394653         3.081891         1.768029
 H         3.519100         1.840845         1.128253
 H         2.504438         1.699723        -1.541780
 H        -0.182506        -1.034012         0.294756
 H         0.600421        -0.620558        -1.226323
 H         1.375505        -1.669265        -0.011752
