19
Iteration:  1684charge 0 multiplicity 1
 C        -0.980460         2.422040        -0.082473
 C         0.226560         1.773865         0.557612
 O         0.314415         1.846177         2.048932
 C         1.577069         1.097207         1.871483
 C         2.518000         2.192363         1.205435
 C         1.677944         1.857588         0.022317
 O         1.735651         2.388512        -1.246642
 C         1.116253         0.486064         0.445403
 C         0.790538        -0.934091        -0.168794
 H        -2.033813         2.219667         0.382178
 H        -0.930414         3.493157         0.088438
 H        -0.988528         2.371359        -1.291113
 H         1.967907         0.641758         2.757258
 H         2.512940         3.277393         1.485599
 H         3.639729         1.793512         1.127367
 H         2.307613         1.861129        -1.887827
 H         0.227759        -1.449434         0.627226
 H         0.294516        -0.751309        -1.071494
 H         1.782222        -1.588166        -0.282145
