19
Iteration:  2847
 C        -0.923509         2.211326        -0.219213
 C         0.224212         1.847124         0.597291
 O         0.330211         1.837867         2.062156
 C         1.525269         1.030202         1.856541
 C         2.668189         1.961131         1.167601
 C         1.585243         2.026938         0.040549
 O         1.691226         2.581176        -1.190154
 C         0.977280         0.574715         0.418152
 C         0.893093        -0.782984        -0.105873
 H        -1.726742         1.433826        -0.025871
 H        -1.245086         3.230546        -0.069608
 H        -0.841386         2.187234        -1.365191
 H         1.782928         0.426802         2.747791
 H         3.011900         2.730219         1.800447
 H         3.443818         1.219264         0.958504
 H         2.051521         1.807794        -1.679694
 H         0.428654        -1.425620         0.702788
 H         0.217371        -1.016357        -1.007718
 H         1.826937        -1.334186        -0.089347
