19
Iteration:   153charge 0 multiplicity 1
 C        -1.083783         2.255632        -0.108704
 C         0.158759         1.681425         0.590669
 O         0.379781         1.836942         2.051704
 C         1.649887         1.088191         1.864758
 C         2.514567         2.147734         1.141807
 C         1.734741         1.919282        -0.046383
 O         1.852024         2.487852        -1.279845
 C         1.042191         0.565003         0.526636
 C         0.705989        -0.815262        -0.085635
 H        -1.971351         1.756197         0.161638
 H        -1.110399         3.285900         0.069022
 H        -1.068364         2.146259        -1.156513
 H         1.867026         0.499203         2.769263
 H         2.418771         3.158406         1.681006
 H         3.581151         1.746317         1.059550
 H         2.466134         1.927238        -1.799274
 H        -0.166768        -1.216733         0.217036
 H         0.684568        -0.682651        -1.195785
 H         1.619931        -1.549401         0.229284
