19
Iteration:  4159
 C        -1.055366         2.238182         0.060312
 C         0.255564         1.898921         0.562045
 O         0.410780         1.906826         2.038794
 C         1.572144         1.021569         1.891544
 C         2.568034         1.951610         1.140040
 C         1.533982         1.924879         0.040556
 O         1.973476         2.285536        -1.279119
 C         1.010282         0.543980         0.507819
 C         0.725676        -0.658736        -0.308287
 H        -1.799880         1.768866         0.658541
 H        -1.070845         3.391436         0.337563
 H        -1.397339         2.462733        -0.995820
 H         1.965502         0.432032         2.693004
 H         2.818658         2.858985         1.702832
 H         3.425637         1.248061         1.101823
 H         1.281390         2.692642        -1.850531
 H        -0.110772        -1.189361         0.091783
 H         0.505733        -0.220809        -1.266297
 H         1.617718        -1.205938        -0.373920
