19
Iteration:  3650charge 0 multiplicity 1
 C        -1.145523         2.453346        -0.038686
 C         0.227110         1.787704         0.483888
 O         0.404875         1.974915         1.905988
 C         1.539780         1.036659         1.907399
 C         2.582644         1.850446         1.248176
 C         1.666510         1.830662         0.021407
 O         1.638686         2.531013        -1.226271
 C         1.014310         0.528137         0.412222
 C         1.021678        -0.864922        -0.109647
 H        -2.093294         1.857829         0.187498
 H        -1.410368         3.353061         0.557066
 H        -0.963023         2.316107        -1.181825
 H         1.551332         0.424946         2.787162
 H         2.853937         2.772021         1.799774
 H         3.567568         1.391724         0.946457
 H         2.563614         2.396091        -1.504613
 H         0.591422        -1.451862         0.601680
 H         0.366026        -1.018039        -0.941863
 H         2.087083        -1.225147        -0.249312
