19
Iteration:  3058
 C        -1.014076         2.325408        -0.036452
 C         0.244405         1.825228         0.581974
 O         0.318733         1.753985         2.026767
 C         1.509206         1.019006         1.780606
 C         2.479934         2.106016         1.166787
 C         1.649933         1.953373        -0.078631
 O         1.901054         2.488664        -1.267365
 C         1.057498         0.531683         0.375395
 C         0.763388        -0.847995         0.000755
 H        -1.813047         1.586008         0.229712
 H        -1.305379         3.383959         0.373481
 H        -1.019948         2.357532        -1.136792
 H         1.945487         0.440670         2.584570
 H         2.447898         3.059180         1.712443
 H         3.534854         1.753622         1.063623
 H         2.834975         2.797154        -1.392743
 H         0.435969        -1.432122         0.894121
 H         0.002714        -1.124312        -0.793964
 H         1.829989        -1.289696        -0.196681
