19
Iteration:  2612charge 0 multiplicity 1
 C        -1.157114         2.248039        -0.037802
 C         0.232102         1.792185         0.527171
 O         0.344889         1.827941         1.958511
 C         1.598175         1.080460         1.886133
 C         2.517262         2.117894         1.251294
 C         1.670510         1.880879        -0.032777
 O         1.843539         2.556428        -1.244971
 C         1.113986         0.509950         0.436744
 C         0.833669        -0.869099        -0.124388
 H        -1.881689         1.746015         0.581750
 H        -1.302857         3.391433         0.193275
 H        -1.330799         2.097800        -1.110231
 H         1.840553         0.534405         2.777425
 H         2.455235         3.060903         1.729309
 H         3.534629         1.841009         1.098390
 H         2.402917         1.935713        -1.721931
 H         0.159851        -1.470400         0.533517
 H         0.424921        -0.526248        -1.193725
 H         1.678841        -1.512066        -0.203591
