19
Iteration:  2869charge 0 multiplicity 1
 C        -0.981288         2.332478        -0.109536
 C         0.165090         1.737171         0.578254
 O         0.289525         1.854948         2.068955
 C         1.534418         0.999488         1.881545
 C         2.570453         1.993598         1.265806
 C         1.633040         1.912329        -0.001930
 O         1.694415         2.520799        -1.338620
 C         1.151581         0.576036         0.459802
 C         0.928583        -0.730338        -0.100216
 H        -1.877808         1.654335        -0.132602
 H        -1.127382         3.371207         0.151766
 H        -0.716529         2.398980        -1.228877
 H         1.852948         0.339828         2.663927
 H         2.687277         2.915060         1.775954
 H         3.460784         1.390131         1.059884
 H         2.221680         1.849246        -1.794178
 H         0.356045        -1.506150         0.473536
 H         0.291964        -0.541395        -1.050019
 H         1.775321        -1.356185        -0.304329
