19
Iteration:  1431charge 0 multiplicity 1
 C        -1.160461         2.324558        -0.035937
 C         0.155243         1.850590         0.634507
 O         0.307589         1.946430         1.999527
 C         1.561955         1.079321         1.867636
 C         2.613338         1.943223         1.202894
 C         1.628755         1.965768        -0.031532
 O         1.910942         2.458706        -1.377338
 C         1.055143         0.504264         0.500359
 C         0.880252        -0.885952        -0.109893
 H        -2.159343         1.749480         0.223999
 H        -1.441954         3.297148         0.442490
 H        -1.112805         2.471451        -1.090604
 H         1.635501         0.437646         2.662619
 H         2.724409         2.915021         1.794671
 H         3.605285         1.558707         0.971369
 H         2.552263         1.889979        -1.793135
 H         0.085116        -1.413382         0.439319
 H         0.665939        -0.869430        -1.109921
 H         1.835480        -1.523447         0.143736
