19
Iteration:  2804charge 0 multiplicity 1
 C        -1.042413         2.137825        -0.000830
 C         0.222026         1.740269         0.511283
 O         0.330222         1.923119         1.959504
 C         1.542655         1.087394         1.865813
 C         2.490189         1.999823         1.233388
 C         1.617014         2.000444         0.006233
 O         1.898718         2.570651        -1.242262
 C         1.064631         0.453403         0.465086
 C         0.777559        -0.804792        -0.158425
 H        -1.751817         1.503295         0.609165
 H        -1.119221         3.205756         0.103115
 H        -1.297046         1.964308        -1.122111
 H         1.908530         0.454308         2.682738
 H         2.724846         2.980305         1.545615
 H         3.456307         1.633673         0.906742
 H         2.852260         2.655338        -1.344632
 H         0.081682        -1.432182         0.437995
 H         0.326091        -0.494675        -1.133584
 H         1.788548        -1.369069        -0.252332
