19
Iteration:  1749
 C        -1.276518         2.158616        -0.042675
 C         0.119790         1.932908         0.626756
 O         0.414428         2.089796         2.022664
 C         1.499064         1.117575         1.914051
 C         2.693215         1.849117         1.264583
 C         1.672507         1.869656         0.011907
 O         1.847673         2.366529        -1.260920
 C         0.972038         0.620819         0.467039
 C         0.939633        -0.741052        -0.261191
 H        -2.154583         1.533955         0.363026
 H        -1.382576         3.188178        -0.202282
 H        -1.094462         1.681629        -1.056902
 H         1.652452         0.542945         2.828009
 H         3.247152         2.813625         1.451456
 H         3.352104         1.054651         0.806243
 H         2.573796         1.957884        -1.766443
 H         0.365371        -1.458427         0.320813
 H         0.514430        -0.704458        -1.179452
 H         1.988961        -1.217575        -0.528374
