19
Iteration:  2651
 C        -1.081603         2.387511         0.014828
 C         0.163161         1.788845         0.528757
 O         0.273122         1.732129         2.026372
 C         1.578948         1.080112         1.829987
 C         2.489877         2.059686         1.166094
 C         1.580363         1.926146        -0.031421
 O         1.876473         2.417996        -1.313495
 C         1.050323         0.587547         0.447034
 C         0.982769        -0.792629        -0.072490
 H        -1.987267         1.774079         0.304098
 H        -1.300706         3.312422         0.489402
 H        -1.012144         2.428574        -1.122450
 H         1.870664         0.293108         2.688235
 H         2.408346         3.098357         1.675018
 H         3.525429         1.607701         0.976244
 H         2.843047         2.552897        -1.466480
 H         0.401578        -1.402811         0.625651
 H         0.335276        -0.867779        -0.889105
 H         2.047044        -1.279424        -0.304845
