19
Iteration:   267
 C        -1.171617         2.266745        -0.040894
 C         0.129231         1.847181         0.572267
 O         0.371473         1.967340         1.987984
 C         1.462377         1.161292         1.880295
 C         2.637838         1.875855         1.223985
 C         1.611988         1.868559        -0.060355
 O         1.779101         2.386553        -1.263786
 C         1.044849         0.606849         0.436017
 C         1.025860        -0.727430        -0.113780
 H        -1.936913         1.586653         0.406139
 H        -1.171005         3.339280         0.269775
 H        -1.236140         2.196698        -1.129914
 H         1.616813         0.417215         2.716421
 H         2.998112         2.777187         1.760061
 H         3.397175         1.107377         1.041341
 H         2.560826         2.005729        -1.654925
 H         0.410526        -1.493988         0.542968
 H         0.651320        -0.825097        -1.155194
 H         2.102796        -1.182011        -0.176324
