19
Iteration:  2457charge 0 multiplicity 1
 C        -1.064593         2.357588        -0.005656
 C         0.180678         1.839583         0.628112
 O         0.260821         1.854013         2.036036
 C         1.507612         0.987324         1.824273
 C         2.506847         1.976821         1.172303
 C         1.563728         1.971300        -0.018641
 O         1.862548         2.521708        -1.321618
 C         1.025249         0.577322         0.424732
 C         1.077984        -0.885404        -0.093173
 H        -1.767996         1.563088         0.319305
 H        -1.193018         3.325246         0.462957
 H        -1.021731         2.461459        -1.171024
 H         1.812086         0.385679         2.817496
 H         2.648262         2.960583         1.658574
 H         3.484061         1.595044         0.985540
 H         2.118516         1.813425        -1.965187
 H         0.578482        -1.564499         0.605806
 H         0.388871        -0.874651        -0.988813
 H         2.098864        -1.194851        -0.359142
