19
Iteration:  2877charge 0 multiplicity 1
 C        -1.009479         2.367860        -0.118505
 C         0.200849         1.741695         0.621311
 O         0.303937         1.837124         2.092099
 C         1.523790         1.075752         1.881453
 C         2.548983         2.064347         1.252205
 C         1.630100         1.885464        -0.048704
 O         1.728333         2.459203        -1.312866
 C         1.107489         0.511255         0.448612
 C         0.941017        -0.785068        -0.191528
 H        -1.954857         1.796223         0.089657
 H        -1.250759         3.334644         0.338171
 H        -0.885469         2.510285        -1.233321
 H         1.823320         0.359199         2.793123
 H         2.752867         3.009750         1.892023
 H         3.591268         1.584328         1.339038
 H         2.404829         1.968166        -1.791699
 H         0.239540        -1.251232         0.574674
 H         0.303155        -0.702637        -1.219963
 H         1.837806        -1.316115        -0.407074
