19
Iteration:  1546charge 0 multiplicity 1
 C        -1.041743         2.286874        -0.063331
 C         0.166026         1.786008         0.655488
 O         0.311675         1.822133         2.100171
 C         1.651507         1.057574         1.934689
 C         2.469694         2.098821         1.283837
 C         1.648327         1.955590        -0.006648
 O         1.918206         2.310632        -1.452896
 C         1.092325         0.623064         0.471110
 C         0.746507        -0.667765        -0.198569
 H        -1.891573         1.862658         0.366722
 H        -1.200556         3.374701        -0.182814
 H        -0.892213         1.752644        -1.064368
 H         1.819414         0.354276         2.851870
 H         2.556275         3.059990         1.728019
 H         3.463641         1.748619         0.972997
 H         2.447656         1.568499        -1.726596
 H         0.155025        -1.355566         0.423296
 H         0.190649        -0.578376        -1.245648
 H         1.580271        -1.221476        -0.415534
