19
Iteration:   346charge 0 multiplicity 1
 C        -0.908893         2.278978        -0.101590
 C         0.273103         1.797792         0.566366
 O         0.315144         1.854131         2.080930
 C         1.530354         1.097280         1.957842
 C         2.485103         2.116926         1.190199
 C         1.615115         1.908630        -0.028535
 O         1.725762         2.407953        -1.323301
 C         1.099419         0.516276         0.518196
 C         0.836496        -0.788940        -0.182702
 H        -1.781418         1.702370         0.201347
 H        -1.295421         3.282224         0.180468
 H        -0.765621         2.310767        -1.160042
 H         2.042700         0.597908         2.764095
 H         2.723215         3.063174         1.570231
 H         3.406757         1.613900         1.041109
 H         2.346785         1.886126        -1.817745
 H        -0.063480        -1.395414         0.311561
 H         0.667384        -0.495119        -1.268467
 H         1.587323        -1.511927         0.002090
