19
Iteration:  4422
 C        -1.033890         2.385577         0.020376
 C         0.217420         1.793931         0.683809
 O         0.404869         1.814431         2.031461
 C         1.556348         1.011717         1.897146
 C         2.578518         2.004238         1.143618
 C         1.646909         1.930850         0.022776
 O         1.908962         2.404441        -1.341329
 C         1.005091         0.527470         0.345984
 C         0.691649        -0.786165        -0.182548
 H        -1.855377         1.849333         0.405316
 H        -0.893632         3.511539        -0.065081
 H        -0.753662         2.154624        -1.023954
 H         1.990339         0.502717         2.887298
 H         2.667285         2.999810         1.595127
 H         3.511770         1.626903         0.740300
 H         1.579276         3.350129        -1.256391
 H        -0.060165        -1.175184         0.718290
 H        -0.074099        -0.802861        -1.040893
 H         1.625532        -1.570168        -0.199606
