19
Iteration:  2654charge 0 multiplicity 1
 C        -1.119028         2.401262        -0.003142
 C         0.146170         1.811135         0.529351
 O         0.279848         1.736728         2.044728
 C         1.585862         1.041206         1.808182
 C         2.508008         2.057903         1.164569
 C         1.595506         1.925270        -0.016021
 O         1.865790         2.410980        -1.312356
 C         1.061829         0.574813         0.460525
 C         0.992016        -0.790327        -0.079450
 H        -1.966215         1.805946         0.199070
 H        -1.377099         3.340028         0.436957
 H        -0.951448         2.407138        -1.089173
 H         1.828522         0.442552         2.699783
 H         2.435471         3.103444         1.623791
 H         3.491726         1.587258         1.005775
 H         2.804319         2.562979        -1.444916
 H         0.485099        -1.434245         0.646944
 H         0.350094        -0.823514        -0.937839
 H         2.015876        -1.245954        -0.250350
