19
Iteration:  3792
 C        -1.055939         2.143995        -0.024083
 C         0.208857         1.866081         0.641294
 O         0.394386         1.970467         2.061256
 C         1.505550         1.023404         1.823675
 C         2.539398         1.966261         1.074925
 C         1.538896         1.930248         0.055460
 O         1.880928         2.385659        -1.242647
 C         1.024221         0.597451         0.444217
 C         0.867220        -0.715411        -0.182198
 H        -1.995864         1.674805         0.445528
 H        -1.382125         3.128556         0.099572
 H        -1.099111         1.908150        -1.138970
 H         1.704799         0.271796         2.595324
 H         2.874187         2.886353         1.539178
 H         3.336404         1.338934         0.659394
 H         2.703323         2.912904        -1.107618
 H         0.136607        -1.444799         0.314208
 H         0.501818        -0.525534        -1.269055
 H         1.971881        -1.220566        -0.250272
