19
Iteration:  2134charge 0 multiplicity 1
 C        -1.016951         2.053937        -0.129419
 C         0.198278         1.698798         0.557305
 O         0.391236         1.992192         2.016276
 C         1.581676         1.107880         1.937561
 C         2.601063         2.074180         1.129026
 C         1.589225         1.891001         0.051273
 O         1.786237         2.503900        -1.230862
 C         1.059749         0.494997         0.566615
 C         0.725461        -0.697775        -0.211713
 H        -1.790486         1.526170         0.349784
 H        -1.194324         3.139425        -0.009719
 H        -0.980641         1.766558        -1.253807
 H         1.866100         0.555511         2.811533
 H         2.918955         2.964284         1.575146
 H         3.461283         1.455479         0.885561
 H         2.742677         2.523104        -1.418846
 H        -0.131203        -1.237137         0.167059
 H         0.456069        -0.361522        -1.139984
 H         1.642241        -1.370769        -0.355168
