19
Iteration:  4192charge 0 multiplicity 1
 C        -1.076045         2.245171        -0.078518
 C         0.197507         1.893114         0.709792
 O         0.462374         1.937744         2.163122
 C         1.518286         1.038567         1.888953
 C         2.634301         1.871780         1.192448
 C         1.638102         1.933140        -0.055163
 O         1.911189         2.416348        -1.335592
 C         0.998566         0.567843         0.386320
 C         0.729852        -0.776039        -0.250727
 H        -2.002046         1.892552         0.394502
 H        -1.304149         3.399198         0.166031
 H        -1.084141         1.986767        -1.198260
 H         1.800987         0.388899         2.733780
 H         2.968241         2.853784         1.583938
 H         3.477064         1.155111         1.059463
 H         1.469702         3.321250        -1.321008
 H        -0.070971        -1.286146         0.305447
 H         0.241303        -0.798264        -1.234691
 H         1.549055        -1.492100        -0.264673
