19
Iteration:  4945charge 0 multiplicity 1
 C        -1.080796         2.264189         0.087032
 C         0.195132         1.742919         0.709119
 O         0.363830         1.808543         2.109070
 C         1.631925         1.008040         1.848315
 C         2.511974         1.989519         1.164517
 C         1.599333         2.002981        -0.002816
 O         1.934712         2.311146        -1.364208
 C         1.114044         0.626224         0.338204
 C         0.702747        -0.649953        -0.278762
 H        -1.932848         1.922339         0.732060
 H        -1.160100         3.345118         0.392635
 H        -1.007389         2.087306        -1.010091
 H         2.022484         0.447388         2.672533
 H         2.712582         2.949365         1.709842
 H         3.454098         1.523168         0.809872
 H         1.930474         3.298819        -1.463818
 H        -0.095988        -0.996363         0.208424
 H         0.440408        -0.454093        -1.280432
 H         1.469488        -1.487659        -0.098241
