19
Iteration:  2158charge 0 multiplicity 1
 C        -1.098385         2.045158        -0.058903
 C         0.186539         1.857849         0.611666
 O         0.373056         2.063729         2.064750
 C         1.490044         1.155034         1.933050
 C         2.607386         1.878102         1.125201
 C         1.696422         1.886209         0.015642
 O         1.821466         2.588126        -1.227492
 C         1.012826         0.535106         0.443126
 C         0.850297        -0.835566        -0.238753
 H        -1.766536         1.456045         0.615992
 H        -1.527475         3.107523        -0.180361
 H        -1.066633         1.534346        -0.971471
 H         1.836633         0.843506         2.850733
 H         2.843111         2.721104         1.664231
 H         3.505550         1.293514         0.927417
 H         2.310185         2.183685        -1.947013
 H        -0.082556        -1.304110        -0.034799
 H         0.801440        -0.640132        -1.228402
 H         1.787350        -1.501828        -0.078118
