19
Iteration:  2913charge 0 multiplicity 1
 C        -1.112240         2.362936         0.088925
 C         0.126859         1.747696         0.598446
 O         0.333387         1.893308         2.023752
 C         1.542198         1.081754         1.843317
 C         2.446885         2.125816         1.196312
 C         1.578237         1.880626        -0.009087
 O         1.941354         2.265865        -1.315680
 C         1.073059         0.528442         0.532730
 C         0.976675        -0.739963        -0.320195
 H        -1.961633         1.761394         0.516350
 H        -1.035653         3.327061         0.615003
 H        -1.236861         2.510468        -1.010344
 H         1.658746         0.540757         2.730188
 H         2.318282         3.079335         1.646381
 H         3.428710         1.724529         0.972689
 H         2.899324         2.270322        -1.400463
 H         0.159135        -1.388097         0.099574
 H         0.655976        -0.434647        -1.387763
 H         1.833672        -1.422848        -0.297486
