19
Iteration:  4885charge 0 multiplicity 1
 C        -1.083201         2.160633        -0.025317
 C         0.198712         1.809976         0.669857
 O         0.446241         1.955155         2.109028
 C         1.571647         0.951172         1.877764
 C         2.669540         1.822241         1.148129
 C         1.615959         2.000101         0.004904
 O         1.865704         2.474049        -1.342984
 C         1.009664         0.575038         0.529999
 C         0.724290        -0.652567        -0.226696
 H        -1.770081         1.327623         0.050702
 H        -1.456283         3.134709         0.270500
 H        -0.999737         2.188795        -1.106676
 H         1.790756         0.457053         2.861170
 H         3.088621         2.792334         1.407700
 H         3.507631         1.224847         0.703039
 H         1.348051         3.276087        -1.592635
 H        -0.129799        -1.334993         0.228216
 H         0.327841        -0.322351        -1.245013
 H         1.529163        -1.240505        -0.587333
