19
Iteration:  2882charge 0 multiplicity 1
 C        -1.031682         2.373171        -0.101643
 C         0.216454         1.763466         0.623422
 O         0.315279         1.818241         2.076865
 C         1.537749         1.102810         1.893946
 C         2.543387         2.094586         1.255818
 C         1.644213         1.892996        -0.021335
 O         1.751514         2.408491        -1.287732
 C         1.075113         0.539807         0.447622
 C         0.907283        -0.841863        -0.250022
 H        -1.945109         1.842385         0.181131
 H        -1.221033         3.317784         0.451062
 H        -0.885327         2.522897        -1.158511
 H         1.720381         0.559482         2.716588
 H         2.567987         3.041128         1.721220
 H         3.517552         1.683403         1.225270
 H         2.514302         2.092928        -1.833012
 H         0.275657        -1.312402         0.475040
 H         0.440515        -0.790606        -1.166716
 H         1.927359        -1.318359        -0.429903
