19
Iteration:  1816charge 0 multiplicity 1
 C        -1.063236         2.371950        -0.097300
 C         0.177711         1.740123         0.573254
 O         0.328525         1.752473         2.075610
 C         1.629895         1.046831         1.855577
 C         2.534684         2.228671         1.221008
 C         1.669916         1.922470        -0.018920
 O         1.802989         2.254211        -1.334564
 C         1.071805         0.632030         0.458703
 C         0.773399        -0.728275        -0.089050
 H        -2.014374         1.818691        -0.078902
 H        -1.093922         3.276391         0.430235
 H        -0.757714         2.625990        -1.212005
 H         2.032314         0.265966         2.605805
 H         2.525794         3.151404         1.889499
 H         3.592685         1.805666         0.946358
 H         2.694722         1.917100        -1.597123
 H        -0.177936        -0.985588         0.379659
 H         0.582483        -0.690604        -1.088589
 H         1.672754        -1.495159         0.009615
