19
Iteration:   369charge 0 multiplicity 1
 C        -1.085310         2.177399        -0.122765
 C         0.186267         1.801711         0.563013
 O         0.360876         1.992434         2.046959
 C         1.520486         1.069241         1.830894
 C         2.694513         1.949000         1.283799
 C         1.646642         1.927034         0.032892
 O         1.709657         2.387329        -1.284980
 C         1.042788         0.619802         0.437059
 C         0.883330        -0.719432        -0.131259
 H        -1.847971         1.488645         0.128197
 H        -1.526304         3.153675         0.081301
 H        -0.874896         2.139651        -1.199468
 H         1.656756         0.353349         2.601985
 H         2.918349         2.805128         1.786051
 H         3.572105         1.506334         0.971690
 H         2.634181         2.170716        -1.607828
 H         0.155549        -1.327027         0.567816
 H         0.475031        -0.581552        -1.175591
 H         1.735391        -1.305207        -0.086994
