19
Iteration:  1023charge 0 multiplicity 1
 C        -1.057478         2.178617         0.021443
 C         0.219208         1.845169         0.606267
 O         0.275088         1.886848         2.023586
 C         1.555060         1.084177         1.867196
 C         2.523436         2.028798         1.165881
 C         1.622124         2.034943         0.007383
 O         1.921739         2.374940        -1.324446
 C         0.949352         0.584594         0.506601
 C         0.879170        -0.747917        -0.227414
 H        -1.765553         1.551360         0.574493
 H        -1.154754         3.253185         0.224098
 H        -1.024618         2.009469        -1.049956
 H         1.692634         0.507722         2.797905
 H         2.605202         2.992531         1.678024
 H         3.550603         1.566706         0.936393
 H         2.590015         1.726218        -1.509166
 H         0.307885        -1.469100         0.415606
 H         0.464493        -0.811377        -1.352003
 H         1.985087        -1.238433        -0.290968
