19
Iteration:   126
 C        -1.070300         2.193561        -0.008260
 C         0.214903         1.891711         0.604528
 O         0.334307         2.001939         2.011815
 C         1.506972         1.059576         1.831465
 C         2.586431         1.919768         1.097653
 C         1.633266         1.987263        -0.019869
 O         1.788341         2.492468        -1.254421
 C         1.074851         0.606760         0.471591
 C         0.892222        -0.909850        -0.072484
 H        -1.866480         1.353885         0.149099
 H        -1.464003         3.300663         0.116460
 H        -0.877512         2.015429        -1.144098
 H         1.645395         0.385447         2.764762
 H         2.903355         2.810318         1.609539
 H         3.362188         1.186103         0.885701
 H         2.632423         2.086380        -1.534774
 H        -0.176252        -1.390779         0.190444
 H         0.810471        -0.767381        -1.161397
 H         1.701594        -1.490889         0.133217
