19
Iteration:   937charge 0 multiplicity 1
 C        -1.054471         2.251989        -0.158738
 C         0.170971         1.759435         0.560234
 O         0.394092         1.914375         2.020505
 C         1.571433         1.109297         1.870336
 C         2.640590         1.974947         1.258458
 C         1.620833         1.895751         0.024401
 O         1.706304         2.451096        -1.234289
 C         0.954693         0.565510         0.557495
 C         0.931932        -0.744089        -0.184831
 H        -2.015764         1.585123         0.097388
 H        -1.426372         3.292308         0.079865
 H        -0.860519         2.241162        -1.266385
 H         1.598498         0.430091         2.728102
 H         2.948674         2.928837         1.684962
 H         3.606521         1.511026         0.932328
 H         2.333932         2.001466        -1.871108
 H         0.291679        -1.458637         0.352058
 H         0.696911        -0.619846        -1.336310
 H         1.878999        -1.138961        -0.120302
