19
Iteration:  1632
 C        -1.088320         2.346176        -0.082805
 C         0.162356         1.876845         0.596017
 O         0.369648         1.863400         2.037101
 C         1.534428         1.121049         1.853611
 C         2.671608         1.970160         1.175282
 C         1.631922         1.921547         0.029884
 O         1.748701         2.389205        -1.258542
 C         0.995917         0.605196         0.447094
 C         0.887611        -0.883116        -0.098167
 H        -1.722169         1.542334        -0.162223
 H        -1.565778         3.303613         0.153226
 H        -0.861269         2.430063        -1.318547
 H         1.767639         0.544397         2.807880
 H         2.797173         2.955889         1.568310
 H         3.570994         1.414773         0.760522
 H         2.619483         2.034810        -1.616843
 H        -0.021533        -1.233809         0.438195
 H         0.823698        -0.776962        -1.249356
 H         1.841469        -1.379020         0.097680
