19
Iteration:  2394charge 0 multiplicity 1
 C        -0.963997         2.109906        -0.167949
 C         0.192078         1.807674         0.706755
 O         0.346607         1.824936         2.142401
 C         1.573247         1.059257         1.886335
 C         2.560620         2.027190         1.163898
 C         1.631078         1.930310        -0.006857
 O         1.721221         2.410629        -1.306206
 C         1.037460         0.660191         0.477506
 C         0.850328        -0.646705        -0.192025
 H        -1.844521         1.604879         0.190764
 H        -1.221852         3.199253        -0.268610
 H        -0.749927         1.723853        -1.249573
 H         1.828554         0.389877         2.692811
 H         2.612734         3.032683         1.639029
 H         3.537073         1.468265         1.176078
 H         2.607694         2.729785        -1.615015
 H        -0.106765        -1.150948         0.117485
 H         0.678921        -0.511355        -1.362251
 H         1.693379        -1.260143        -0.122186
