19
Iteration:  4957
 C        -1.024433         2.333040         0.133192
 C         0.169173         1.801298         0.701191
 O         0.314813         1.733019         2.154119
 C         1.614568         1.042656         1.812821
 C         2.650172         2.090744         1.101894
 C         1.599257         2.015010        -0.004640
 O         1.916069         2.251698        -1.272905
 C         1.027578         0.651536         0.316935
 C         0.704414        -0.744753        -0.302056
 H        -1.989946         1.787426         0.444449
 H        -1.007996         3.458176         0.097729
 H        -1.201240         2.100491        -0.936699
 H         1.832721         0.379418         2.641972
 H         2.773553         3.037205         1.717647
 H         3.616180         1.716982         0.724488
 H         1.953503         3.204197        -1.475699
 H        -0.047472        -1.199864         0.194687
 H         0.511592        -0.831470        -1.358067
 H         1.675444        -1.324825        -0.275772
