19
Iteration:  2280
 C        -1.001332         2.254845        -0.189471
 C         0.188563         1.864918         0.634418
 O         0.318731         1.829719         2.163852
 C         1.516776         1.072540         1.872496
 C         2.624684         1.945148         1.183657
 C         1.611770         1.983082        -0.007332
 O         1.668172         2.379298        -1.288240
 C         0.980091         0.645422         0.438149
 C         1.027804        -0.713152        -0.142729
 H        -1.966346         1.574985        -0.263168
 H        -1.421899         3.209016         0.289156
 H        -0.691748         2.491864        -1.207309
 H         1.838026         0.544775         2.904234
 H         2.975088         2.733702         1.860883
 H         3.437686         1.274541         0.954390
 H         2.094884         1.749280        -1.921079
 H         0.776054        -1.538503         0.541340
 H         0.395504        -0.765935        -1.060028
 H         2.077742        -0.877136        -0.590445
