19
Iteration:  3566charge 0 multiplicity 1
 C        -1.066052         2.123128         0.096164
 C         0.266284         1.871710         0.646486
 O         0.339430         1.909600         2.017298
 C         1.557514         1.114849         1.976655
 C         2.520561         2.074874         1.313615
 C         1.731125         1.929295        -0.033300
 O         1.830775         2.347287        -1.366134
 C         1.080203         0.588666         0.389173
 C         0.747757        -0.721828        -0.335618
 H        -1.826327         1.562694         0.528599
 H        -1.277457         3.169863        -0.058555
 H        -1.062559         1.942498        -0.932997
 H         1.599956         0.453518         2.866445
 H         2.483881         3.081745         1.816259
 H         3.532769         1.708532         1.176072
 H         2.490044         1.703491        -1.698275
 H        -0.199936        -1.304182         0.084362
 H         0.607607        -0.391330        -1.388150
 H         1.579653        -1.430814        -0.468750
