19
Iteration:  3721
 C        -1.041999         2.202591        -0.051410
 C         0.196794         1.763237         0.579862
 O         0.328678         1.887027         2.034882
 C         1.639745         1.014235         1.901434
 C         2.612399         2.124061         1.348883
 C         1.599005         2.011920        -0.007576
 O         1.826451         2.396034        -1.328158
 C         1.190552         0.602267         0.436566
 C         0.714535        -0.788227        -0.233615
 H        -1.954400         1.735240         0.263858
 H        -1.461233         3.285197         0.320763
 H        -1.022448         2.057021        -1.096762
 H         1.750310         0.293610         2.778170
 H         2.672279         3.107750         1.882649
 H         3.626111         1.814583         1.086367
 H         2.024467         1.605821        -1.868546
 H        -0.274026        -1.187693         0.212296
 H         0.485841        -0.499564        -1.294813
 H         1.442549        -1.528360        -0.299134
