19
Iteration:   335charge 0 multiplicity 1
 C        -0.947676         2.336544        -0.096589
 C         0.207187         1.668636         0.592007
 O         0.286823         1.832851         2.143284
 C         1.576809         1.205834         1.877016
 C         2.557780         2.185810         1.193181
 C         1.660867         1.868179         0.003969
 O         1.753211         2.410017        -1.321191
 C         1.066508         0.495227         0.483443
 C         0.824414        -0.825401        -0.185072
 H        -1.842661         1.727718         0.046783
 H        -0.862763         3.379772         0.290113
 H        -0.769100         2.304355        -1.146737
 H         1.773432         0.595275         2.755819
 H         2.467946         3.169026         1.554771
 H         3.537185         1.817165         1.054950
 H         2.311464         1.751159        -1.793241
 H        -0.269913        -1.238488         0.121079
 H         0.702581        -0.751988        -1.328166
 H         1.652859        -1.488942        -0.136468
