19
Iteration:  2735charge 0 multiplicity 1
 C        -1.076342         2.198880        -0.058997
 C         0.106818         1.808804         0.648277
 O         0.330194         1.897360         2.059656
 C         1.603690         1.094158         1.934199
 C         2.527154         2.067327         1.223648
 C         1.632925         1.994286         0.061628
 O         1.818598         2.352028        -1.245238
 C         1.074537         0.644547         0.440470
 C         0.937618        -0.784213        -0.346088
 H        -1.918648         1.517079         0.231746
 H        -1.208144         3.311174        -0.010405
 H        -0.870483         2.045638        -1.135499
 H         1.593153         0.385422         2.815714
 H         2.775121         2.939076         1.738799
 H         3.439870         1.523654         1.005716
 H         2.125794         1.582206        -1.724261
 H         0.049992        -1.390006         0.036232
 H         0.801786        -0.536831        -1.517225
 H         1.848413        -1.275894        -0.319316
