19
Iteration:  2964charge 0 multiplicity 1
 C        -1.108211         2.163560        -0.024607
 C         0.192556         1.862923         0.591825
 O         0.382600         1.999011         2.042138
 C         1.479296         0.989655         1.859090
 C         2.572354         1.919530         1.192917
 C         1.604511         1.971034         0.045287
 O         1.822238         2.379738        -1.258275
 C         1.016447         0.628736         0.465643
 C         0.981674        -0.621120        -0.269063
 H        -1.719191         1.424290         0.471394
 H        -1.324149         3.210731         0.000997
 H        -1.202997         1.775772        -1.079257
 H         1.492082         0.354495         2.921337
 H         2.873654         2.871262         1.830481
 H         3.403989         1.156444         0.951925
 H         2.155499         1.619029        -1.737586
 H         0.179714        -1.334389         0.035638
 H         0.892818        -0.541756        -1.363824
 H         1.803384        -1.183288         0.076404
