19
Iteration:  1552
 C        -1.065746         2.248559        -0.042136
 C         0.180732         1.826477         0.660378
 O         0.325738         1.844616         2.062274
 C         1.584738         1.000001         1.935532
 C         2.489985         2.115625         1.210832
 C         1.642189         1.981105        -0.033157
 O         1.911817         2.283218        -1.382595
 C         1.141660         0.654815         0.489412
 C         0.752825        -0.668894        -0.220879
 H        -2.057628         1.835188         0.396238
 H        -1.236506         3.316915        -0.081136
 H        -0.922843         1.852237        -1.109199
 H         1.705958         0.330256         2.709106
 H         2.668821         3.064548         1.813948
 H         3.499240         1.634678         1.102740
 H         2.481735         1.534570        -1.724316
 H         0.097363        -1.289016         0.429939
 H         0.190551        -0.526216        -1.079990
 H         1.754690        -1.317716        -0.351103
