19
Iteration:  2630
 C        -1.032337         2.283615         0.121971
 C         0.212282         1.676626         0.539462
 O         0.245289         1.855727         1.998124
 C         1.488577         1.045403         1.801368
 C         2.488993         2.178854         1.220649
 C         1.648290         1.979097        -0.017787
 O         1.885682         2.500894        -1.330330
 C         1.171707         0.525307         0.363758
 C         0.839656        -0.904969        -0.137673
 H        -1.944881         1.902540         0.600698
 H        -1.017898         3.246085         0.504490
 H        -1.069863         2.240661        -1.009278
 H         1.652917         0.642640         2.887827
 H         2.471782         3.287795         1.646265
 H         3.465694         1.594671         1.148496
 H         2.766673         2.213658        -1.612739
 H         0.283009        -1.453739         0.626317
 H         0.279186        -0.977444        -0.984611
 H         1.904779        -1.439347        -0.222841
