19
Iteration:  4083
 C        -1.050472         2.414676         0.053832
 C         0.206954         1.748169         0.630310
 O         0.358079         1.926765         2.078188
 C         1.552277         1.063351         1.845700
 C         2.658752         1.899464         1.194237
 C         1.630487         1.910318         0.053038
 O         1.772891         2.337192        -1.352992
 C         0.972959         0.571071         0.398176
 C         0.809883        -0.779102        -0.249056
 H        -1.988305         1.879034         0.149204
 H        -1.189859         3.517115         0.379663
 H        -1.016772         2.479960        -1.103094
 H         1.791979         0.392617         2.631254
 H         2.966224         2.818862         1.771161
 H         3.573847         1.285885         0.895531
 H         2.414147         3.043080        -1.247139
 H         0.232935        -1.444801         0.365730
 H         0.582200        -0.602166        -1.277156
 H         1.857926        -1.165654        -0.302670
