19
Iteration:  3499charge 0 multiplicity 1
 C        -1.092652         2.180050        -0.098614
 C         0.159334         1.888849         0.595968
 O         0.371350         1.910319         2.164911
 C         1.555184         1.015095         1.845319
 C         2.608011         1.956176         1.212846
 C         1.633751         1.916856        -0.089813
 O         1.858375         2.530719        -1.313960
 C         0.992297         0.588071         0.442349
 C         0.822255        -0.788714        -0.094746
 H        -1.750899         1.417608         0.087258
 H        -1.339100         3.166533         0.237546
 H        -0.941228         2.368848        -1.110502
 H         1.776792         0.272248         2.577865
 H         2.570257         2.993202         1.508705
 H         3.455859         1.441849         0.800687
 H         2.627656         2.117340        -1.759668
 H        -0.025258        -1.433861         0.436587
 H         0.676814        -0.756499        -1.187299
 H         1.829161        -1.341448         0.020806
