19
Iteration:  4861charge 0 multiplicity 1
 C        -1.086763         2.314215        -0.020367
 C         0.206388         1.871435         0.647094
 O         0.405796         1.816384         2.122016
 C         1.628827         1.040274         1.766583
 C         2.652310         1.940867         1.150380
 C         1.628659         1.878865        -0.008485
 O         1.837404         2.376914        -1.254416
 C         0.972636         0.619417         0.447946
 C         0.743163        -0.705986        -0.187966
 H        -1.903135         1.583606         0.185183
 H        -1.266843         3.364065         0.168283
 H        -1.034009         2.201157        -1.075012
 H         1.919492         0.373628         2.581191
 H         2.947320         2.870340         1.693015
 H         3.522338         1.463121         0.716932
 H         1.518833         3.269185        -1.380543
 H         0.145430        -1.552780         0.418986
 H         0.305579        -0.701094        -1.243405
 H         1.712290        -1.108388        -0.500940
