19
Iteration:  3541
 C        -1.166708         2.016720         0.007796
 C         0.232153         1.816540         0.561873
 O         0.357540         2.025431         1.993846
 C         1.540637         1.083408         1.906932
 C         2.639115         1.963371         1.158953
 C         1.690480         1.916692        -0.010115
 O         1.864665         2.412267        -1.252541
 C         1.021417         0.586170         0.524036
 C         0.773364        -0.643885        -0.265593
 H        -1.779038         1.302565         0.624816
 H        -1.448052         3.136456         0.298156
 H        -1.553111         2.057709        -1.058406
 H         1.657101         0.531566         2.787557
 H         2.916799         2.853358         1.765870
 H         3.547225         1.289335         0.947523
 H         2.792484         2.197436        -1.290887
 H        -0.130059        -1.153924         0.014179
 H         0.755061        -0.293017        -1.287821
 H         1.618077        -1.415732        -0.289509
