19
Iteration:  4209
 C        -0.980742         2.298550        -0.006694
 C         0.244970         1.871094         0.562149
 O         0.372084         1.893063         2.032303
 C         1.573855         0.962360         1.845150
 C         2.633770         1.871823         1.123810
 C         1.625412         1.951378         0.028275
 O         1.810936         2.441426        -1.291795
 C         0.997077         0.568612         0.466258
 C         0.701368        -0.741588        -0.115630
 H        -1.792279         1.688648         0.412965
 H        -1.220151         3.294002        -0.141058
 H        -0.885569         2.026177        -1.042661
 H         1.837813         0.277503         2.647656
 H         2.894669         2.685978         1.798287
 H         3.485326         1.284886         0.770295
 H         1.952568         3.422148        -1.307105
 H        -0.046671        -1.354101         0.471450
 H         0.286113        -0.513740        -1.148305
 H         1.709089        -1.182380        -0.168973
