19
Iteration:   336
 C        -0.945174         2.334713        -0.096351
 C         0.219312         1.673806         0.583829
 O         0.288091         1.834500         2.144524
 C         1.570318         1.201051         1.882182
 C         2.552037         2.184008         1.198044
 C         1.657344         1.869207         0.000911
 O         1.750756         2.411835        -1.324275
 C         1.064946         0.491838         0.485926
 C         0.828137        -0.819182        -0.186274
 H        -1.799374         1.722742         0.066692
 H        -0.903263         3.369797         0.283352
 H        -0.754626         2.293976        -1.151513
 H         1.798369         0.604068         2.739485
 H         2.508480         3.140486         1.542986
 H         3.494172         1.804921         1.034027
 H         2.302931         1.761327        -1.774160
 H        -0.265979        -1.268802         0.143108
 H         0.695853        -0.721778        -1.327023
 H         1.631029        -1.503992        -0.112509
