19
Iteration:   441charge 0 multiplicity 1
 C        -1.135840         2.295542        -0.067441
 C         0.213092         1.844527         0.596491
 O         0.317262         1.848909         1.993602
 C         1.605235         1.082850         1.898396
 C         2.537569         2.173649         1.276676
 C         1.647271         1.918740         0.015366
 O         1.843903         2.360228        -1.314621
 C         1.130949         0.575756         0.416864
 C         0.814172        -0.838831        -0.201712
 H        -1.923401         1.768678         0.624550
 H        -1.286757         3.439477        -0.062675
 H        -1.135655         1.899351        -1.095969
 H         1.624058         0.431752         2.861855
 H         2.763347         3.120570         1.977280
 H         3.632809         1.714021         1.268930
 H         2.565054         1.821241        -1.736708
 H         0.322645        -1.384124         0.591233
 H         0.116777        -0.689007        -1.034665
 H         1.689499        -1.720460        -0.497870
