19
Iteration:  4018
 C        -1.030264         2.415615        -0.061244
 C         0.205926         1.852799         0.599834
 O         0.366969         1.782245         2.066452
 C         1.602848         0.994251         1.828725
 C         2.614437         1.992396         1.173449
 C         1.620449         1.909047        -0.001525
 O         1.817781         2.529510        -1.220541
 C         1.096713         0.580507         0.437224
 C         0.706191        -0.849588        -0.151595
 H        -1.855378         1.911895         0.455265
 H        -1.216198         3.505888        -0.197870
 H        -1.009876         2.070730        -1.172728
 H         1.944512         0.472125         2.691456
 H         2.729142         2.970814         1.720632
 H         3.655470         1.596531         0.896650
 H         1.874433         1.848184        -1.913158
 H         0.022548        -1.530175         0.448265
 H         0.072951        -0.754701        -1.059340
 H         1.730513        -1.445400        -0.314916
