19
Iteration:   552
 C        -1.173993         2.278408         0.043828
 C         0.216733         1.893417         0.501818
 O         0.279221         1.850810         1.990982
 C         1.538688         1.052046         1.891534
 C         2.584764         2.013910         1.196596
 C         1.611637         2.022245        -0.014879
 O         1.886050         2.371317        -1.282999
 C         1.036428         0.622494         0.367080
 C         0.918231        -0.820073        -0.099015
 H        -2.014379         1.604668         0.240599
 H        -1.581402         3.249307         0.433826
 H        -1.030534         2.312653        -1.028833
 H         1.775062         0.509924         2.704036
 H         3.036846         2.901234         1.769647
 H         3.418532         1.264090         0.911103
 H         2.651638         1.844528        -1.533784
 H         0.340946        -1.440781         0.475516
 H         0.702398        -0.941767        -1.183157
 H         1.956926        -1.230272         0.214779
