19
Iteration:  1459charge 0 multiplicity 1
 C        -1.068191         2.280314        -0.096181
 C         0.211689         1.895972         0.629251
 O         0.369796         1.930402         2.012246
 C         1.510973         1.105044         1.787274
 C         2.514786         1.829596         1.058121
 C         1.588632         1.915163        -0.006460
 O         1.834553         2.486662        -1.198213
 C         0.979580         0.585589         0.455746
 C         0.947993        -0.818017        -0.010342
 H        -1.934194         1.809645         0.230225
 H        -1.295510         3.379563         0.055735
 H        -1.056282         2.166325        -1.187688
 H         1.718331         0.246789         2.595499
 H         2.842510         2.791947         1.444463
 H         3.329115         1.128152         0.822884
 H         2.678089         2.240046        -1.563181
 H         0.261685        -1.413450         0.598479
 H         0.735713        -1.056400        -1.139576
 H         1.916609        -1.110456         0.292296
