19
Iteration:   284
 C        -1.087205         2.353407         0.025066
 C         0.221932         1.860659         0.586570
 O         0.238559         1.910575         2.010521
 C         1.520856         1.019333         1.859287
 C         2.580401         2.019001         1.214792
 C         1.676078         1.990679         0.019448
 O         1.775598         2.344525        -1.373259
 C         1.022524         0.584727         0.443820
 C         0.989249        -0.844973        -0.120849
 H        -1.834092         1.681835         0.405978
 H        -1.303431         3.422288         0.215425
 H        -1.029587         2.101156        -1.056971
 H         1.734562         0.501642         2.747927
 H         2.812173         3.034110         1.664917
 H         3.512908         1.457479         0.956047
 H         2.563213         1.892468        -1.665140
 H         0.248175        -1.390526         0.367961
 H         0.725653        -0.892164        -1.164838
 H         1.945018        -1.309408        -0.027233
