19
Iteration:  1472
 C        -1.016725         2.311026        -0.107064
 C         0.195938         1.931592         0.595268
 O         0.305692         1.973557         2.061313
 C         1.489308         1.000997         1.870759
 C         2.651667         1.855229         1.135976
 C         1.607985         1.879027        -0.058118
 O         1.745958         2.540633        -1.303455
 C         0.947500         0.557008         0.434139
 C         0.961627        -0.872190        -0.022872
 H        -1.854543         1.746044         0.396738
 H        -1.235048         3.436877        -0.124665
 H        -0.870066         1.952816        -1.058269
 H         1.665558         0.489617         2.872493
 H         2.977922         2.779712         1.702839
 H         3.541376         1.262092         0.927099
 H         2.700801         2.376612        -1.538589
 H         0.250240        -1.463484         0.553319
 H         0.678057        -0.947804        -1.078639
 H         1.956325        -1.431360         0.022965
