19
Iteration:  2494charge 0 multiplicity 1
 C        -1.159269         2.367036         0.066754
 C         0.112390         1.767660         0.602653
 O         0.232702         1.708593         2.045783
 C         1.567204         0.999697         1.793424
 C         2.514322         2.150584         1.165541
 C         1.675918         1.922385        -0.009867
 O         1.957162         2.373652        -1.306032
 C         1.089222         0.626024         0.343952
 C         1.003257        -0.702659        -0.093976
 H        -2.035956         1.825218         0.374250
 H        -1.383787         3.386180         0.582307
 H        -1.303018         2.536315        -0.954649
 H         1.832418         0.432370         2.534839
 H         2.448809         3.137915         1.600283
 H         3.584660         1.847893         1.045621
 H         2.183648         1.539806        -1.723492
 H         0.381259        -1.294066         0.613726
 H         0.486865        -0.614527        -1.104648
 H         1.829983        -1.316769        -0.248569
