19
Iteration:   485
 C        -1.012612         2.339319        -0.186860
 C         0.164699         1.790521         0.656691
 O         0.292962         1.890560         2.105035
 C         1.564447         1.102503         1.918661
 C         2.571271         2.068024         1.219760
 C         1.613524         1.871036         0.053455
 O         1.692276         2.404360        -1.318700
 C         1.107799         0.534960         0.501073
 C         0.891729        -0.827602        -0.214620
 H        -2.067120         1.967298         0.075185
 H        -0.936709         3.471343        -0.095014
 H        -0.557872         2.019585        -1.097283
 H         2.027212         0.569317         2.767001
 H         2.815325         3.161643         1.499466
 H         3.571542         1.532434         1.002582
 H         2.464358         2.025305        -1.819719
 H         0.187923        -1.516567         0.091846
 H         0.788201        -0.573929        -1.268453
 H         1.814578        -1.549504        -0.124830
