19
Iteration:  3315
 C        -0.972656         2.213281        -0.002099
 C         0.246845         1.824729         0.622504
 O         0.229965         1.769256         2.095190
 C         1.609834         1.161849         1.926478
 C         2.576040         2.116476         1.198693
 C         1.700583         1.954302        -0.014988
 O         1.824196         2.328137        -1.327598
 C         1.133520         0.602449         0.403729
 C         0.671327        -0.721214        -0.238243
 H        -1.881794         1.413241         0.133329
 H        -1.324653         3.239783         0.270718
 H        -0.828359         2.081203        -1.084633
 H         1.972179         0.584868         2.721025
 H         2.509826         3.164686         1.526505
 H         3.540310         1.676608         1.034761
 H         2.745338         1.925373        -1.387864
 H        -0.262677        -1.112105         0.156032
 H         0.382425        -0.560632        -1.243453
 H         1.390595        -1.425101        -0.177475
