19
Iteration:   387charge 0 multiplicity 1
 C        -1.208624         2.098718        -0.128315
 C         0.187816         1.897670         0.608727
 O         0.390520         2.003727         2.029996
 C         1.525452         1.087299         1.881156
 C         2.610650         1.902845         1.180970
 C         1.688784         1.983181         0.029068
 O         1.853395         2.459943        -1.277972
 C         0.976791         0.615089         0.450692
 C         0.854943        -0.788895        -0.148014
 H        -1.950155         1.369579         0.338322
 H        -1.495823         3.132030         0.225051
 H        -1.027234         2.013348        -1.196416
 H         1.643786         0.521471         2.848503
 H         3.075086         2.868111         1.722469
 H         3.374432         1.012780         1.039650
 H         2.730085         2.117750        -1.620246
 H         0.508099        -1.534983         0.494533
 H         0.354632        -0.857792        -1.121112
 H         1.946767        -1.226696        -0.275053
