19
Iteration:  3769charge 0 multiplicity 1
 C        -1.124433         2.079584        -0.088278
 C         0.174737         1.809153         0.661903
 O         0.368902         1.947849         2.104504
 C         1.617392         1.090958         1.945312
 C         2.655008         1.986425         1.189751
 C         1.611314         1.961685         0.073970
 O         1.844711         2.399627        -1.377331
 C         1.020987         0.576420         0.538746
 C         0.749990        -0.667198        -0.329599
 H        -2.118074         1.576966         0.184870
 H        -1.450953         3.077707        -0.116030
 H        -0.916797         1.729862        -1.188350
 H         1.976854         0.572999         2.823755
 H         2.839167         2.838649         1.804004
 H         3.561719         1.457534         0.849039
 H         2.813712         2.574244        -1.307800
 H        -0.099545        -1.264865         0.175626
 H         0.497992        -0.405864        -1.431625
 H         1.712208        -1.387233        -0.343704
