19
Iteration:  2676
 C        -1.116518         2.370462        -0.143248
 C         0.138116         1.814596         0.639810
 O         0.352086         1.879033         2.102071
 C         1.529666         1.080233         1.913540
 C         2.602259         1.997155         1.196511
 C         1.569061         1.934509         0.039350
 O         1.732838         2.371403        -1.286436
 C         1.016536         0.609938         0.409532
 C         1.073983        -0.856927        -0.204811
 H        -1.946616         1.739706        -0.066442
 H        -1.486429         3.240246         0.361501
 H        -0.837401         2.508297        -1.183204
 H         1.694649         0.247667         2.541387
 H         2.785533         2.975903         1.765840
 H         3.484961         1.410151         0.896504
 H         2.676054         2.523309        -1.524894
 H         0.497429        -1.550741         0.394219
 H         0.543819        -0.907464        -1.136461
 H         2.158781        -1.222524        -0.321242
