19
Iteration:  2083
 C        -0.996492         2.275777        -0.031970
 C         0.233717         1.835760         0.560119
 O         0.214854         1.719967         2.090429
 C         1.581549         1.054515         1.821783
 C         2.528901         2.132986         1.176461
 C         1.669492         1.952377        -0.050049
 O         1.812322         2.353662        -1.371321
 C         1.145687         0.613679         0.420100
 C         0.793393        -0.756928        -0.010382
 H        -1.967755         1.720597         0.081039
 H        -1.093256         3.352048         0.434549
 H        -0.825499         2.474731        -1.002721
 H         1.834265         0.378692         2.559635
 H         2.272387         3.126590         1.625223
 H         3.601714         1.890562         1.414253
 H         2.755106         2.363080        -1.685159
 H         0.373095        -1.423659         0.757512
 H         0.096207        -0.704998        -0.918859
 H         1.735469        -1.291687        -0.427616
