19
Iteration:  4117
 C        -1.109191         2.401949         0.114154
 C         0.186709         1.856371         0.592831
 O         0.384024         1.839321         2.146087
 C         1.558139         1.038398         1.838508
 C         2.590061         1.997090         1.196742
 C         1.676692         1.916584        -0.056610
 O         1.962675         2.177581        -1.312424
 C         0.943627         0.605300         0.445341
 C         0.799479        -0.676061        -0.313739
 H        -1.951217         1.709579         0.424618
 H        -1.451591         3.402193         0.479045
 H        -1.173925         2.559311        -1.011707
 H         1.827756         0.313563         2.623289
 H         2.730182         3.041448         1.629481
 H         3.595961         1.540543         0.922298
 H         1.472074         2.914597        -1.678342
 H         0.050842        -1.405982        -0.041728
 H         0.477452        -0.573764        -1.331562
 H         1.834981        -1.090013        -0.175647
