19
Iteration:  4511
 C        -1.073293         2.330800         0.089348
 C         0.175198         1.825592         0.684148
 O         0.432742         1.841220         2.027103
 C         1.578879         1.039841         1.898439
 C         2.548822         1.924814         1.179628
 C         1.593495         1.897530         0.020583
 O         1.911904         2.222125        -1.379282
 C         0.992771         0.653348         0.455053
 C         0.785955        -0.612242        -0.267089
 H        -2.021116         1.865281         0.340078
 H        -1.147984         3.436859         0.175973
 H        -1.184442         2.274869        -0.948907
 H         1.876826         0.548808         2.846110
 H         2.791943         2.894490         1.635303
 H         3.399030         1.379866         0.877823
 H         1.950761         3.221649        -1.414398
 H         0.031074        -1.346935         0.180927
 H         0.586477        -0.410791        -1.314413
 H         1.683101        -1.237160        -0.483038
