19
Iteration:  2699
 C        -0.974089         2.248810        -0.102155
 C         0.261335         1.797825         0.647646
 O         0.312309         1.973233         1.973227
 C         1.452050         1.023225         1.966855
 C         2.554668         1.943461         1.157038
 C         1.596981         1.896269         0.013985
 O         1.636806         2.437551        -1.267653
 C         1.027528         0.527872         0.558773
 C         1.054684        -0.707977        -0.226935
 H        -1.827763         1.670754         0.001939
 H        -1.323280         3.159698         0.445209
 H        -0.752190         2.417758        -1.097443
 H         1.798498         0.513511         2.767051
 H         2.838878         2.848116         1.745391
 H         3.374100         1.267681         0.958527
 H         2.418595         2.124431        -1.727121
 H         0.477683        -1.606623        -0.011445
 H         0.702360        -0.357570        -1.266890
 H         2.112424        -0.991196        -0.301429
