19
Iteration:   457charge 0 multiplicity 1
 C        -0.987351         2.286366        -0.068905
 C         0.256492         1.825213         0.532237
 O         0.286587         1.810471         2.051160
 C         1.504543         1.041003         1.851994
 C         2.517568         2.095877         1.261526
 C         1.638674         1.979379         0.028766
 O         1.737154         2.300810        -1.320010
 C         1.187418         0.583447         0.442687
 C         0.828121        -0.691725        -0.118041
 H        -1.807647         1.937139         0.475938
 H        -0.979998         3.366008         0.009766
 H        -0.940431         1.886395        -1.107021
 H         1.948670         0.474096         2.616789
 H         2.379418         3.061604         1.681349
 H         3.521456         1.799411         1.056047
 H         2.561610         1.869791        -1.696252
 H         0.220056        -1.440523         0.507952
 H         0.361205        -0.534101        -1.131530
 H         1.700379        -1.267302        -0.293050
