19
Iteration:  4711charge 0 multiplicity 1
 C        -1.119720         2.253137         0.062639
 C         0.235307         1.836586         0.595083
 O         0.406993         1.884415         2.054037
 C         1.599961         1.010864         1.794351
 C         2.606498         1.972230         1.194599
 C         1.650712         1.863228         0.030601
 O         1.884460         2.292390        -1.339038
 C         1.032256         0.559592         0.549771
 C         0.733739        -0.578935        -0.281020
 H        -2.043654         1.698163         0.417361
 H        -1.500449         3.349818         0.290529
 H        -1.070324         2.263994        -1.039522
 H         1.841204         0.348363         2.634691
 H         2.693949         2.968269         1.696223
 H         3.579447         1.415769         1.007375
 H         1.676601         3.224965        -1.283068
 H        -0.119921        -1.137517         0.069803
 H         0.510496        -0.289568        -1.331697
 H         1.611096        -1.312535        -0.273096
