19
Iteration:    19
 C        -0.970067         2.379798        -0.004415
 C         0.209777         1.817902         0.574550
 O         0.289154         1.771545         2.004100
 C         1.584231         1.111375         1.887806
 C         2.496383         2.189001         1.279175
 C         1.649690         1.964782         0.024599
 O         1.774727         2.230726        -1.344362
 C         1.088898         0.570163         0.427741
 C         0.844193        -0.752045        -0.203535
 H        -1.780915         1.818903         0.447479
 H        -0.974551         3.454185         0.119641
 H        -0.884437         2.209374        -1.050532
 H         1.923187         0.596748         2.896631
 H         2.494365         3.195160         1.802401
 H         3.564927         1.815621         1.172934
 H         2.128665         1.420656        -1.713748
 H         0.315322        -1.398853         0.474422
 H         0.272664        -0.699599        -1.151121
 H         1.773110        -1.452757        -0.407768
