19
Iteration:   890charge 0 multiplicity 1
 C        -1.088651         2.255673        -0.111277
 C         0.160195         1.741383         0.597379
 O         0.376410         1.865613         2.064050
 C         1.543682         1.074902         1.876102
 C         2.592215         2.003032         1.194589
 C         1.707118         1.889392        -0.007444
 O         1.727289         2.528173        -1.316706
 C         0.988290         0.581267         0.456449
 C         0.907864        -0.807851        -0.110240
 H        -2.033564         1.924134         0.202803
 H        -1.133331         3.362020        -0.111009
 H        -0.941137         2.053493        -1.248093
 H         1.871738         0.585529         2.765836
 H         2.713181         2.954643         1.713760
 H         3.575252         1.494972         1.374349
 H         2.572082         2.219332        -1.634431
 H         0.027637        -1.323636         0.313771
 H         0.875351        -0.683453        -1.197409
 H         1.774028        -1.369695         0.096933
