19
Iteration:  1048
 C        -1.123573         2.182969        -0.189546
 C         0.166498         1.800303         0.610950
 O         0.418677         2.015229         2.027884
 C         1.538843         1.069463         1.912858
 C         2.580336         1.952138         1.216060
 C         1.661548         1.843230         0.022650
 O         1.727939         2.516761        -1.221828
 C         1.079512         0.563563         0.515808
 C         0.896372        -0.786873        -0.185537
 H        -2.047515         1.621835         0.330422
 H        -1.129852         3.298500        -0.038503
 H        -0.950221         2.012148        -1.245263
 H         1.608228         0.525432         2.893590
 H         2.909779         2.973995         1.509365
 H         3.404514         1.239907         1.004538
 H         2.347419         2.020862        -1.752250
 H         0.104765        -1.483020         0.212636
 H         0.701823        -0.497337        -1.384084
 H         1.804253        -1.342188        -0.277485
