19
Iteration:  1806charge 0 multiplicity 1
 C        -1.071987         2.342216        -0.072182
 C         0.113895         1.751679         0.600351
 O         0.341750         1.779027         2.087757
 C         1.677323         1.116960         1.835895
 C         2.519402         2.171642         1.306602
 C         1.674480         1.896977         0.005459
 O         1.839585         2.241753        -1.334855
 C         1.093894         0.604464         0.388950
 C         0.766362        -0.693632        -0.165067
 H        -2.010165         1.848549         0.079088
 H        -1.272546         3.317503         0.334366
 H        -0.916889         2.586685        -1.267248
 H         1.886336         0.495577         2.768367
 H         2.572145         3.265673         1.495593
 H         3.667384         1.817133         1.180415
 H         2.531921         1.737183        -1.789021
 H        -0.081694        -1.148273         0.380895
 H         0.545632        -0.678708        -1.168955
 H         1.591763        -1.495250         0.121774
