19
Iteration:  3268
 C        -0.958263         2.266661        -0.184989
 C         0.211929         1.816509         0.614126
 O         0.395716         1.956101         1.995592
 C         1.538481         1.049770         1.841769
 C         2.589684         1.977073         1.154131
 C         1.621327         1.888876         0.030472
 O         1.733634         2.560613        -1.142313
 C         0.991757         0.519106         0.403971
 C         0.831730        -0.878599        -0.095104
 H        -1.840380         1.576477        -0.108941
 H        -1.296093         3.239448         0.261723
 H        -0.799037         2.383406        -1.302197
 H         1.653797         0.586729         2.860187
 H         2.769166         2.950776         1.662694
 H         3.498639         1.371711         0.836300
 H         2.456765         2.169418        -1.668361
 H         0.268442        -1.437340         0.715490
 H         0.221239        -1.045486        -0.956115
 H         1.771681        -1.356532        -0.142628
