19
Iteration:   332
 C        -0.953633         2.338616        -0.092426
 C         0.167619         1.661121         0.621223
 O         0.285103         1.828916         2.128775
 C         1.594308         1.208212         1.871254
 C         2.567206         2.187432         1.175259
 C         1.668081         1.866914         0.008601
 O         1.762486         2.399747        -1.309745
 C         1.076672         0.510978         0.474402
 C         0.802925        -0.843097        -0.186427
 H        -1.979180         1.794395         0.012783
 H        -0.798578         3.378175         0.290419
 H        -0.792815         2.351617        -1.188430
 H         1.746947         0.571625         2.797743
 H         2.365145         3.287455         1.605339
 H         3.697715         1.847346         1.129769
 H         2.313861         1.760791        -1.840149
 H        -0.159915        -1.144002         0.053211
 H         0.726202        -0.804896        -1.276370
 H         1.732361        -1.496517        -0.163632
