19
Iteration:  4601
 C        -1.037020         2.397276        -0.077016
 C         0.204315         1.911900         0.625182
 O         0.423410         1.877757         2.092887
 C         1.577339         1.035746         1.825541
 C         2.572507         1.807302         1.116150
 C         1.612524         1.852501        -0.008381
 O         1.830520         2.417095        -1.225267
 C         0.947688         0.605875         0.452253
 C         0.841631        -0.767135        -0.184336
 H        -1.816166         1.741826         0.380907
 H        -1.207282         3.367853         0.344423
 H        -1.052870         2.190925        -1.107094
 H         1.759532         0.468833         2.682983
 H         3.009871         2.720679         1.458457
 H         3.446657         1.201488         0.860599
 H         1.058252         3.028413        -1.339785
 H         0.237511        -1.431364         0.412187
 H         0.698122        -0.571262        -1.239092
 H         1.875976        -1.188782        -0.344540
