19
Iteration:  1117
 C        -1.071913         2.297259        -0.022902
 C         0.177731         1.748784         0.656968
 O         0.317178         1.811408         2.044984
 C         1.581798         1.119098         1.866882
 C         2.535166         2.154830         1.244062
 C         1.637463         1.998243        -0.033528
 O         1.893222         2.443297        -1.336190
 C         1.050375         0.558972         0.402450
 C         0.812901        -0.916743        -0.154311
 H        -2.043634         1.959665         0.291441
 H        -1.023711         3.406233        -0.011065
 H        -0.998408         2.178095        -1.216753
 H         1.927770         0.470240         2.642502
 H         2.568604         3.093154         1.831039
 H         3.472546         1.652949         1.219873
 H         2.581758         1.909721        -1.817018
 H         0.072238        -1.364508         0.531725
 H         0.414324        -0.991484        -1.251205
 H         1.675019        -1.542114        -0.095502
