19
Iteration:  3971charge 0 multiplicity 1
 C        -1.245441         2.228380         0.035301
 C         0.222300         1.839349         0.610185
 O         0.379348         1.892748         2.025345
 C         1.656242         1.053668         1.844262
 C         2.615855         1.991265         1.211298
 C         1.589503         1.938128         0.042588
 O         2.041227         2.377981        -1.280138
 C         1.046343         0.574036         0.434525
 C         0.730252        -0.747160        -0.257669
 H        -1.946540         1.723767         0.653936
 H        -1.323453         3.407563         0.037759
 H        -1.226754         2.055248        -1.042833
 H         1.879378         0.371677         2.687221
 H         2.832145         2.927159         1.791304
 H         3.571613         1.487434         0.961350
 H         1.258588         2.781322        -1.756482
 H        -0.138353        -1.221855         0.196645
 H         0.162286        -0.499399        -1.141558
 H         1.533902        -1.528942        -0.374005
