19
Iteration:  2126charge 0 multiplicity 1
 C        -1.027590         2.088008        -0.177885
 C         0.222192         1.692542         0.614878
 O         0.387947         1.949894         2.037031
 C         1.566370         1.084279         1.884103
 C         2.581930         2.062856         1.162814
 C         1.615341         1.966234         0.040860
 O         1.778442         2.430849        -1.244844
 C         1.126501         0.529192         0.554209
 C         0.719131        -0.697922        -0.178999
 H        -1.919586         1.554266         0.233567
 H        -1.282543         3.200980        -0.032669
 H        -1.051158         1.902832        -1.190298
 H         1.924536         0.654725         2.745788
 H         2.699330         2.988713         1.697995
 H         3.531718         1.657166         0.768287
 H         2.724136         2.641913        -1.403332
 H        -0.082837        -1.242349         0.298673
 H         0.367736        -0.293243        -1.100280
 H         1.476300        -1.490401        -0.505711
