19
Iteration:  3752
 C        -1.044413         2.075188        -0.066289
 C         0.255554         1.824426         0.620001
 O         0.290959         1.907656         2.092006
 C         1.558952         1.068573         1.906751
 C         2.642136         2.077058         1.226117
 C         1.727782         1.869169        -0.039359
 O         1.760762         2.371032        -1.281395
 C         1.086322         0.592334         0.511370
 C         0.708026        -0.605069        -0.283831
 H        -1.684539         1.386344         0.455442
 H        -1.275085         3.192961         0.055367
 H        -1.042891         1.761574        -1.052602
 H         1.692227         0.407704         2.804947
 H         2.759873         3.187182         1.485073
 H         3.615410         1.575352         1.196651
 H         2.607406         2.180865        -1.731280
 H        -0.143995        -1.128191         0.065489
 H         0.673151        -0.172628        -1.240332
 H         1.451349        -1.299657        -0.518675
