19
Iteration:  4829charge 0 multiplicity 1
 C        -0.978500         2.444905         0.125777
 C         0.203254         1.770583         0.566790
 O         0.336976         1.844602         2.064313
 C         1.590221         1.000395         1.808620
 C         2.551844         1.983692         1.289856
 C         1.614354         1.924187        -0.062461
 O         1.758847         2.362750        -1.408550
 C         1.089456         0.531057         0.437118
 C         0.823125        -0.821724        -0.215441
 H        -1.874487         2.257735         0.724928
 H        -0.912532         3.468534         0.433941
 H        -1.131474         2.409365        -0.914680
 H         1.828830         0.414022         2.698811
 H         2.656159         2.942967         1.843046
 H         3.499740         1.665827         0.872419
 H         2.077920         3.294979        -1.414206
 H         0.279149        -1.607908         0.452242
 H         0.225784        -0.637687        -1.165884
 H         1.787659        -1.166739        -0.452230
