19
Iteration:  3659charge 0 multiplicity 1
 C        -1.165597         2.414928        -0.057463
 C         0.132169         1.766014         0.504964
 O         0.410335         1.955848         1.948362
 C         1.525119         1.060403         1.898718
 C         2.649808         1.870086         1.269515
 C         1.613566         1.926533        -0.030318
 O         1.720847         2.530243        -1.244222
 C         0.991220         0.495468         0.416781
 C         0.991129        -0.889757        -0.062106
 H        -1.980221         1.710616         0.175438
 H        -1.143259         3.286352         0.418791
 H        -1.163018         2.806252        -1.138455
 H         1.756598         0.369276         2.682603
 H         2.986363         2.737427         1.799868
 H         3.489715         1.180315         0.983974
 H         2.565167         2.584690        -1.714833
 H         0.604077        -1.619526         0.640374
 H         0.571960        -0.955425        -1.091698
 H         2.051044        -1.226267        -0.324429
