19
Iteration:  1735charge 0 multiplicity 1
 C        -1.149098         2.168961        -0.102944
 C         0.190355         1.918653         0.604356
 O         0.356528         2.064088         2.095388
 C         1.501200         1.082884         1.878466
 C         2.674181         1.829725         1.135787
 C         1.590149         1.963572         0.018064
 O         1.833001         2.354792        -1.309072
 C         0.969298         0.602579         0.485890
 C         0.937138        -0.746668        -0.199677
 H        -1.849836         1.753211         0.694152
 H        -1.576520         3.186259        -0.209129
 H        -1.243625         1.718317        -0.963159
 H         1.593047         0.419834         2.713053
 H         3.081426         2.648810         1.756319
 H         3.410796         1.135576         1.020841
 H         2.788091         2.170362        -1.342139
 H         0.568576        -1.547233         0.432243
 H         0.374453        -0.660683        -1.168495
 H         1.954122        -0.981465        -0.374737
