19
Iteration:  4370charge 0 multiplicity 1
 C        -1.055002         2.374246         0.089164
 C         0.224705         1.793850         0.676558
 O         0.392230         1.898688         2.040662
 C         1.540133         1.087362         1.905887
 C         2.595364         1.902440         1.169337
 C         1.575712         1.877551         0.006518
 O         1.857797         2.254016        -1.357954
 C         1.031006         0.590470         0.412798
 C         0.763484        -0.642041        -0.261292
 H        -1.864089         1.703871         0.430619
 H        -1.000318         3.459231         0.071289
 H        -0.945113         2.194020        -0.942385
 H         1.814178         0.395089         2.720431
 H         2.775068         2.909018         1.601523
 H         3.484039         1.369856         0.923130
 H         1.900907         3.252936        -1.397424
 H         0.032621        -1.298849         0.129354
 H         0.646659        -0.641698        -1.303215
 H         1.746944        -1.231679        -0.163089
