19
Iteration:  1651charge 0 multiplicity 1
 C        -0.987659         2.357704        -0.124821
 C         0.218433         1.798455         0.621611
 O         0.279993         1.856632         2.097985
 C         1.575667         0.983684         1.839626
 C         2.533481         2.067144         1.218215
 C         1.658266         1.917587        -0.024446
 O         1.703586         2.417237        -1.381623
 C         1.128631         0.578596         0.450030
 C         0.854063        -0.790858        -0.051934
 H        -2.039284         1.915840        -0.041269
 H        -0.910905         3.317493         0.350498
 H        -0.791459         2.598854        -1.229259
 H         1.928952         0.434480         2.669277
 H         2.714242         3.070293         1.691254
 H         3.455887         1.402318         1.148057
 H         2.349146         1.795364        -1.780162
 H         0.006734        -1.208020         0.523600
 H         0.637664        -0.861094        -1.070432
 H         1.829212        -1.424240         0.116783
