19
Iteration:  1484
 C        -1.011340         2.328415        -0.133416
 C         0.235960         1.765654         0.571408
 O         0.371511         1.979951         2.028389
 C         1.454479         1.053288         1.888887
 C         2.626776         1.917878         1.258062
 C         1.698190         1.967385         0.032962
 O         1.691856         2.514736        -1.346642
 C         0.993148         0.505089         0.495522
 C         0.865876        -0.896224        -0.086609
 H        -2.018385         1.974267         0.344351
 H        -1.079768         3.482207        -0.192849
 H        -1.064911         1.991382        -1.097254
 H         1.737542         0.295328         2.641238
 H         3.039846         2.937493         1.574741
 H         3.416939         1.232714         0.973649
 H         2.510693         2.498442        -1.825730
 H         0.253464        -1.601987         0.477690
 H         0.512099        -0.830933        -1.073528
 H         2.009807        -1.215556        -0.068624
