19
Iteration:  1361charge 0 multiplicity 1
 C        -0.975923         2.184139        -0.158493
 C         0.169932         1.809324         0.644426
 O         0.337495         1.953878         2.145759
 C         1.578834         1.069463         1.974574
 C         2.608663         2.035975         1.135106
 C         1.610633         1.927104         0.044228
 O         1.781837         2.291352        -1.302525
 C         1.008081         0.603599         0.511035
 C         0.789719        -0.658899        -0.258703
 H        -1.842854         1.636154        -0.094583
 H        -1.322380         3.228206        -0.060045
 H        -0.617381         2.022638        -1.223264
 H         1.898362         0.393236         2.893019
 H         2.725528         3.092191         1.398082
 H         3.590028         1.545430         0.927855
 H         2.552816         1.817974        -1.600730
 H         0.179716        -1.423508         0.212344
 H         0.323305        -0.450063        -1.272550
 H         1.813474        -1.062195        -0.385392
