19
Iteration:  2863
 C        -0.964304         2.280911        -0.147512
 C         0.190939         1.757424         0.584520
 O         0.294322         1.840799         2.025726
 C         1.542861         0.988117         1.868290
 C         2.568812         1.927969         1.250228
 C         1.633665         1.985514         0.044740
 O         1.681738         2.531153        -1.315692
 C         1.128666         0.631234         0.484672
 C         0.894596        -0.751868        -0.064918
 H        -1.866167         1.711425        -0.109924
 H        -1.127311         3.349663         0.161421
 H        -0.552310         2.300914        -1.115537
 H         1.773554         0.297255         2.722140
 H         2.719229         2.962285         1.703033
 H         3.441030         1.381823         0.833686
 H         2.099066         1.889702        -1.961102
 H         0.339387        -1.461519         0.525707
 H         0.392040        -0.596608        -0.986598
 H         1.910005        -1.242239        -0.387199
