19
Iteration:  3301charge 0 multiplicity 1
 C        -0.974885         2.236432        -0.097630
 C         0.297218         1.788710         0.563691
 O         0.352904         1.795990         2.069008
 C         1.538450         1.105677         1.962612
 C         2.526047         2.120572         1.250309
 C         1.677871         1.929121        -0.008924
 O         1.772874         2.408990        -1.371491
 C         1.120787         0.509808         0.480827
 C         0.677465        -0.746368        -0.201664
 H        -1.804503         1.552839         0.229948
 H        -1.262184         3.221998         0.363469
 H        -0.880492         2.449025        -1.204048
 H         1.779526         0.673679         2.949781
 H         2.756602         3.070988         1.792044
 H         3.552959         1.670137         1.216593
 H         2.581761         2.413348        -1.867633
 H        -0.198062        -1.202637         0.421474
 H         0.318114        -0.607001        -1.232956
 H         1.484534        -1.484610        -0.240710
