19
Iteration:   732charge 0 multiplicity 1
 C        -1.106232         2.324331        -0.102145
 C         0.195315         1.777804         0.557377
 O         0.364487         1.791087         2.041146
 C         1.565400         1.050900         1.825487
 C         2.507062         2.071742         1.213216
 C         1.600077         1.944666        -0.008208
 O         1.811386         2.396990        -1.309800
 C         1.058530         0.613996         0.467564
 C         0.925678        -0.766706        -0.062835
 H        -2.033379         1.781421         0.268827
 H        -1.187137         3.284016         0.394627
 H        -0.965648         2.358845        -1.157043
 H         1.859934         0.270867         2.616026
 H         2.357022         3.140721         1.674531
 H         3.610540         1.822168         1.096394
 H         2.680493         2.000559        -1.625373
 H         0.030705        -1.126780         0.375232
 H         0.728806        -0.874452        -1.162650
 H         1.847400        -1.498563         0.110678
