19
Iteration:  2767
 C        -1.197919         2.184578         0.003956
 C         0.226070         1.769845         0.591077
 O         0.290344         1.764213         2.078756
 C         1.594895         1.092873         1.862975
 C         2.488495         2.105424         1.280819
 C         1.720886         1.937554        -0.066201
 O         1.950633         2.368495        -1.319383
 C         1.069918         0.659541         0.398995
 C         0.832151        -0.661133        -0.185446
 H        -2.033768         1.771993         0.597762
 H        -1.421036         3.284675         0.111273
 H        -1.285711         1.846445        -1.014176
 H         1.785913         0.340508         2.687013
 H         2.436152         3.137981         1.685588
 H         3.510693         1.707389         1.218974
 H         2.854685         2.193780        -1.682107
 H        -0.075523        -1.215041         0.191321
 H         0.596791        -0.606923        -1.372985
 H         1.662190        -1.280469        -0.225273
