19
Iteration:   127
 C        -1.064166         2.193853        -0.008018
 C         0.202406         1.891021         0.601217
 O         0.337290         1.996858         2.014615
 C         1.510937         1.062911         1.835323
 C         2.585779         1.926534         1.099874
 C         1.623638         1.979707        -0.028757
 O         1.791906         2.495983        -1.251029
 C         1.080210         0.608697         0.466154
 C         0.882719        -0.912399        -0.075171
 H        -1.872003         1.356600         0.136780
 H        -1.452273         3.307191         0.092529
 H        -0.886065         2.031161        -1.127259
 H         1.682101         0.373996         2.813061
 H         2.900765         2.849384         1.615380
 H         3.392373         1.187655         0.882697
 H         2.645381         2.050088        -1.517473
 H        -0.161736        -1.378676         0.197360
 H         0.806479        -0.759778        -1.177267
 H         1.712660        -1.521912         0.161691
