19
Iteration:   844charge 0 multiplicity 1
 C        -1.172033         2.239665         0.024606
 C         0.160052         1.741372         0.543949
 O         0.301865         1.814822         2.039131
 C         1.549866         1.114535         1.889262
 C         2.540840         2.127042         1.259586
 C         1.697079         1.918470        -0.027738
 O         1.957799         2.425493        -1.389091
 C         1.052322         0.575520         0.467456
 C         0.812602        -0.770558        -0.156459
 H        -1.925188         1.826264         0.630779
 H        -1.236413         3.325559         0.133118
 H        -1.419657         2.105892        -1.055601
 H         1.898058         0.424122         2.769570
 H         2.677097         3.156179         1.752008
 H         3.567707         1.771748         1.106083
 H         2.681175         1.977761        -1.797556
 H         0.247319        -1.458628         0.527170
 H         0.493613        -0.736839        -1.118534
 H         1.867390        -1.220136        -0.378407
