19
Iteration:  1227charge 0 multiplicity 1
 C        -0.946922         2.291709        -0.152474
 C         0.234095         1.832996         0.644422
 O         0.308972         1.955952         2.047741
 C         1.546896         1.115977         1.930856
 C         2.568708         2.003277         1.212872
 C         1.607889         1.976166         0.053228
 O         1.668707         2.355155        -1.286809
 C         1.146783         0.522901         0.491655
 C         0.872486        -0.844202        -0.251598
 H        -1.631520         1.586917         0.129045
 H        -1.311574         3.175610         0.302430
 H        -0.815834         2.271174        -1.235334
 H         1.855115         0.735093         2.934001
 H         2.732225         2.926474         1.750168
 H         3.487756         1.470259         1.023000
 H         2.226833         1.846526        -1.849897
 H         0.037186        -1.383143         0.184568
 H         0.430726        -0.562958        -1.249969
 H         1.678415        -1.455040        -0.325230
