19
Iteration:  3848charge 0 multiplicity 1
 C        -0.981768         2.484254         0.044158
 C         0.184430         1.774122         0.620840
 O         0.270269         1.793721         1.951906
 C         1.601075         1.017491         1.792530
 C         2.532152         2.018159         1.132507
 C         1.567953         1.947226         0.038802
 O         1.876236         2.335448        -1.255134
 C         1.018082         0.565813         0.404742
 C         0.940378        -0.811526        -0.088750
 H        -1.886582         1.886754         0.430128
 H        -0.912378         3.475158         0.474185
 H        -1.118936         2.571104        -1.020396
 H         1.859666         0.356523         2.659416
 H         2.422332         2.990912         1.630405
 H         3.538268         1.750872         0.942180
 H         1.088385         2.756415        -1.710582
 H         0.434666        -1.493198         0.631014
 H         0.545246        -0.718101        -1.142551
 H         2.036348        -1.230026        -0.401658
