19
Iteration:  2856
 C        -0.935203         2.230098        -0.197709
 C         0.237716         1.808030         0.633497
 O         0.312277         1.817014         1.996077
 C         1.544690         1.014521         1.869853
 C         2.585684         1.913336         1.208590
 C         1.610315         2.065933         0.040134
 O         1.679513         2.532266        -1.249603
 C         1.044241         0.597028         0.468812
 C         0.899900        -0.771883        -0.061382
 H        -1.913568         1.698864        -0.023719
 H        -1.182397         3.233417         0.147735
 H        -0.536650         2.255958        -1.279818
 H         1.617847         0.290036         2.799727
 H         2.992795         2.833890         1.742303
 H         3.538169         1.441549         0.823519
 H         1.985185         1.943906        -1.968019
 H         0.289307        -1.320453         0.726130
 H         0.327190        -0.786656        -1.155538
 H         1.854978        -1.087909        -0.311289
