19
Iteration:  2108
 C        -1.005854         2.186095        -0.119189
 C         0.220361         1.864011         0.609877
 O         0.340439         1.781060         2.087394
 C         1.617642         1.062720         1.895628
 C         2.536712         2.174730         1.274518
 C         1.630636         1.930649         0.037990
 O         1.772179         2.332359        -1.386045
 C         1.170889         0.613465         0.389568
 C         0.700585        -0.725268        -0.138147
 H        -1.886759         1.501971         0.133293
 H        -1.368758         3.204713        -0.045566
 H        -0.692468         1.977817        -1.217047
 H         1.955390         0.339904         2.787736
 H         2.569744         3.186040         1.880464
 H         3.561964         1.726502         1.221808
 H         2.677608         2.640893        -1.573934
 H         0.122892        -1.243607         0.687623
 H         0.003400        -0.689481        -1.147233
 H         1.498617        -1.369372        -0.372191
