19
Iteration:   736charge 0 multiplicity 1
 C        -1.100255         2.319801        -0.108041
 C         0.164157         1.785443         0.577858
 O         0.352298         1.805172         2.048038
 C         1.602156         1.049718         1.836555
 C         2.538069         2.107702         1.251814
 C         1.574505         1.946651        -0.033149
 O         1.815253         2.395147        -1.319967
 C         1.064699         0.587904         0.484897
 C         0.939313        -0.800527        -0.095472
 H        -2.021023         1.799974         0.147977
 H        -1.244666         3.339230         0.363536
 H        -0.929401         2.344877        -1.218052
 H         1.816757         0.239960         2.666444
 H         2.517537         3.086857         1.715658
 H         3.549565         1.739957         1.066484
 H         2.605618         2.065939        -1.726421
 H        -0.019025        -1.253779         0.336271
 H         0.631706        -0.759905        -1.105718
 H         1.715094        -1.399843         0.110990
