19
Iteration:  1234charge 0 multiplicity 1
 C        -0.919456         2.308424        -0.087765
 C         0.260982         1.841250         0.601560
 O         0.338687         1.883502         2.009682
 C         1.505768         1.118916         1.958595
 C         2.533592         2.038268         1.184662
 C         1.605650         1.907969         0.000755
 O         1.664190         2.371126        -1.260671
 C         1.161979         0.577737         0.483713
 C         0.842954        -0.827284        -0.217439
 H        -1.747008         1.514798         0.216895
 H        -1.283427         3.361441         0.126977
 H        -0.805973         2.335844        -1.125017
 H         1.673029         0.678263         2.882778
 H         2.677164         3.064498         1.667746
 H         3.483731         1.518889         1.098484
 H         2.293828         1.769245        -1.678607
 H         0.056399        -1.382853         0.368021
 H         0.650042        -0.592874        -1.307908
 H         1.749914        -1.551706        -0.339207
