19
Iteration:  4594
 C        -1.051628         2.411788        -0.027420
 C         0.192606         1.907057         0.631642
 O         0.392364         1.869338         2.050611
 C         1.552734         1.054800         1.812991
 C         2.694337         1.857227         1.081464
 C         1.589050         1.920698         0.036725
 O         1.829984         2.366166        -1.203439
 C         0.942588         0.560343         0.466978
 C         0.845852        -0.761598        -0.217718
 H        -1.846641         1.823285         0.410748
 H        -1.301022         3.469543         0.222495
 H        -0.888857         2.208195        -1.154608
 H         1.793922         0.302175         2.649720
 H         2.968240         2.846792         1.511525
 H         3.558622         1.140730         0.945934
 H         1.081008         2.960175        -1.364043
 H         0.187880        -1.568458         0.150616
 H         0.480468        -0.760708        -1.300133
 H         1.922554        -1.224325        -0.058903
