19
Iteration:  3465charge 0 multiplicity 1
 C        -0.943167         2.440476        -0.051500
 C         0.257951         1.677293         0.481944
 O         0.266008         1.818415         2.024963
 C         1.561145         1.075839         1.851684
 C         2.551080         2.093175         1.280395
 C         1.626039         1.943530        -0.005014
 O         1.643700         2.463134        -1.265755
 C         1.235283         0.536868         0.411975
 C         0.818822        -0.892222        -0.114477
 H        -1.880751         2.114910         0.150193
 H        -0.976743         3.419312         0.404605
 H        -0.855571         2.532055        -1.112139
 H         1.794715         0.542551         2.705809
 H         2.903993         3.030571         1.701796
 H         3.568487         1.795382         1.016958
 H         2.258304         1.898630        -1.816430
 H         0.189631        -1.329216         0.755521
 H         0.180990        -0.931935        -1.023474
 H         1.665067        -1.707765        -0.211476
