19
Iteration:  2106charge 0 multiplicity 1
 C        -0.976648         2.198100        -0.118992
 C         0.217954         1.859325         0.613295
 O         0.336962         1.761156         2.088461
 C         1.595526         1.051875         1.895524
 C         2.533441         2.201799         1.284153
 C         1.651774         1.922601         0.037193
 O         1.775290         2.329723        -1.402667
 C         1.148308         0.623789         0.386051
 C         0.699067        -0.721101        -0.127484
 H        -1.833326         1.469715         0.159737
 H        -1.433803         3.245032        -0.030108
 H        -0.764761         2.007644        -1.131448
 H         1.978111         0.376318         2.698098
 H         2.578241         3.182899         1.893139
 H         3.557554         1.727993         1.172822
 H         2.655129         2.621995        -1.602303
 H         0.168820        -1.240626         0.706962
 H         0.013841        -0.720871        -1.117689
 H         1.546079        -1.394249        -0.379649
