19
Iteration:  4911charge 0 multiplicity 1
 C        -1.087942         2.122225         0.066883
 C         0.282043         1.875578         0.643329
 O         0.402164         2.013986         2.049633
 C         1.616415         1.005859         1.849654
 C         2.673230         1.924248         1.184763
 C         1.717573         1.885724         0.044217
 O         1.826451         2.397626        -1.217758
 C         0.986470         0.596840         0.371719
 C         0.641295        -0.702981        -0.375134
 H        -1.610126         1.233574         0.411298
 H        -1.483549         3.107227         0.407513
 H        -1.211190         2.080780        -1.054673
 H         1.908302         0.523716         2.764257
 H         2.802814         2.977541         1.446699
 H         3.615776         1.349846         1.090826
 H         1.403635         3.290405        -1.276657
 H        -0.123074        -1.117909         0.143687
 H         0.341088        -0.680640        -1.373213
 H         1.455810        -1.469083        -0.312723
