19
Iteration:  4005
 C        -0.974422         2.294072         0.016718
 C         0.281301         1.886458         0.660884
 O         0.285594         1.810911         2.070688
 C         1.598024         1.029020         1.819841
 C         2.556075         2.013712         1.174874
 C         1.642502         1.876864        -0.067832
 O         1.899979         2.502606        -1.266930
 C         1.034316         0.515571         0.386416
 C         0.728156        -0.750096        -0.153499
 H        -1.808292         1.948445         0.576248
 H        -1.034971         3.459666         0.188239
 H        -1.152792         1.848332        -1.020874
 H         1.729898         0.328546         2.620393
 H         2.593446         3.003919         1.711411
 H         3.574076         1.506360         1.032875
 H         1.540807         2.098369        -2.084763
 H         0.083612        -1.155111         0.641457
 H         0.262981        -0.556588        -1.121387
 H         1.554600        -1.513398        -0.469594
