19
Iteration:  4894
 C        -1.046232         2.103617         0.025097
 C         0.242664         1.833967         0.693013
 O         0.473560         1.980808         2.089776
 C         1.527401         1.108060         1.884364
 C         2.631154         1.846366         1.138629
 C         1.573078         1.944282        -0.009040
 O         1.863980         2.443568        -1.273723
 C         1.072528         0.580401         0.407785
 C         0.685597        -0.679694        -0.296722
 H        -1.790699         1.269567         0.193293
 H        -1.432634         3.076021         0.338449
 H        -0.734506         2.219343        -0.984082
 H         1.659595         0.371696         2.689590
 H         3.123593         2.574564         1.815460
 H         3.297900         1.125627         0.670309
 H         1.266852         3.214021        -1.422909
 H        -0.136791        -1.396552         0.229732
 H         0.270778        -0.350462        -1.321546
 H         1.549113        -1.362533        -0.397659
