19
Iteration:  4926charge 0 multiplicity 1
 C        -1.145997         2.189437         0.082934
 C         0.252692         1.853473         0.577302
 O         0.457294         1.863569         2.047635
 C         1.546869         1.007446         1.884670
 C         2.677245         1.998567         1.202321
 C         1.696541         1.896823        -0.039942
 O         1.872369         2.402884        -1.351718
 C         1.050479         0.546126         0.500698
 C         0.639772        -0.678115        -0.264784
 H        -1.986594         1.527558         0.534614
 H        -1.494804         3.193139         0.384749
 H        -1.209339         2.090111        -0.997577
 H         1.642197         0.274076         2.701118
 H         2.761030         2.861502         1.924293
 H         3.692511         1.717143         0.905871
 H         1.670291         3.354215        -1.228832
 H        -0.382194        -1.174576        -0.013506
 H         0.604068        -0.195831        -1.295567
 H         1.526791        -1.313935        -0.390028
