19
Iteration:   443charge 0 multiplicity 1
 C        -1.115133         2.291900        -0.065605
 C         0.229454         1.863532         0.607640
 O         0.308335         1.840771         1.993341
 C         1.603912         1.059096         1.890455
 C         2.521481         2.179443         1.283044
 C         1.654057         1.927147         0.013658
 O         1.824668         2.344624        -1.317399
 C         1.148755         0.571853         0.426634
 C         0.821747        -0.833081        -0.190798
 H        -1.923424         1.801729         0.567245
 H        -1.274184         3.438601        -0.111874
 H        -1.190634         1.951791        -1.114399
 H         1.623981         0.449652         2.753285
 H         2.759834         3.152852         1.934687
 H         3.599488         1.701403         1.241171
 H         2.538963         1.838001        -1.694671
 H         0.264398        -1.306891         0.576280
 H         0.097878        -0.677760        -1.063207
 H         1.701543        -1.662269        -0.506438
