19
Iteration:  2414
 C        -0.996181         2.200869        -0.160402
 C         0.272725         1.768932         0.597447
 O         0.354935         1.993737         2.056150
 C         1.529677         1.104871         1.947900
 C         2.628224         1.951439         1.187279
 C         1.560672         1.965184         0.061971
 O         1.595968         2.474731        -1.261469
 C         1.087229         0.466832         0.571429
 C         0.924470        -0.809765        -0.291679
 H        -1.893625         1.555521         0.029545
 H        -1.164383         3.298376        -0.121932
 H        -0.688387         2.043425        -1.308129
 H         1.704714         0.428865         2.904541
 H         2.923575         2.857092         1.764805
 H         3.485652         1.412752         0.843136
 H         2.499291         2.806780        -1.283674
 H         0.124236        -1.427123         0.160618
 H         0.540477        -0.590074        -1.370447
 H         1.858284        -1.288036        -0.312467
