19
Iteration:  2485
 C        -1.186525         2.400711         0.023359
 C         0.056013         1.762671         0.612970
 O         0.300072         1.681044         2.042898
 C         1.514818         1.001069         1.767978
 C         2.563724         2.117584         1.221063
 C         1.622438         2.009610        -0.041072
 O         1.956721         2.352083        -1.292855
 C         1.091073         0.697416         0.312106
 C         1.016449        -0.765277        -0.069277
 H        -2.004990         1.748286         0.415382
 H        -1.253789         3.355291         0.609647
 H        -1.207358         2.541111        -0.987682
 H         1.838102         0.341379         2.542061
 H         2.431011         3.142523         1.667534
 H         3.662821         1.791009         1.063497
 H         2.136685         1.577919        -1.834969
 H         0.395615        -1.207961         0.727114
 H         0.386711        -0.893866        -0.914830
 H         2.067823        -1.244553        -0.238673
