19
Iteration:  2793charge 0 multiplicity 1
 C        -1.112915         2.151070         0.040079
 C         0.289712         1.760275         0.522209
 O         0.274578         1.879612         1.973322
 C         1.523680         1.080507         1.863636
 C         2.550413         2.119265         1.178888
 C         1.648764         2.026012        -0.007778
 O         1.919105         2.481240        -1.229561
 C         1.135029         0.546109         0.454430
 C         0.762417        -0.861500        -0.201826
 H        -1.906995         1.741305         0.739345
 H        -1.258951         3.196957         0.248321
 H        -1.351098         1.861214        -1.062430
 H         1.656347         0.549732         2.835304
 H         2.640451         2.990673         1.790677
 H         3.443886         1.503834         1.057987
 H         2.890603         2.656369        -1.324873
 H        -0.048533        -1.429336         0.294147
 H         0.362131        -0.726147        -1.247906
 H         1.607255        -1.604743        -0.450013
