19
Iteration:   566
 C        -1.115548         2.279132         0.020480
 C         0.122581         1.767930         0.590376
 O         0.317442         1.864492         1.985295
 C         1.528176         1.075307         1.774699
 C         2.543455         2.041915         1.177302
 C         1.595455         1.978993         0.014939
 O         1.961623         2.370867        -1.286571
 C         1.047600         0.606810         0.453575
 C         0.919402        -0.777768        -0.099746
 H        -1.927621         1.603305         0.324524
 H        -1.348352         3.217035         0.505718
 H        -1.211281         2.427402        -1.099037
 H         1.757561         0.446743         2.681509
 H         2.561913         3.081986         1.700020
 H         3.575114         1.669573         0.925133
 H         2.630463         1.727473        -1.592523
 H         0.190331        -1.197010         0.483459
 H         0.450044        -0.685997        -1.116401
 H         1.860276        -1.352990        -0.193919
