19
Iteration:  3307
 C        -0.979899         2.230370        -0.038695
 C         0.301940         1.805150         0.549515
 O         0.305351         1.752019         2.093424
 C         1.539217         1.169663         1.977865
 C         2.563668         2.100983         1.226137
 C         1.657351         1.950694        -0.026834
 O         1.795575         2.365716        -1.351926
 C         1.135583         0.586388         0.456246
 C         0.626629        -0.753846        -0.235710
 H        -1.701703         1.451440         0.200592
 H        -1.239525         3.241325         0.248050
 H        -0.780782         2.310707        -1.098573
 H         1.930216         0.676456         2.910653
 H         2.560427         3.083046         1.726435
 H         3.578518         1.701604         1.133263
 H         2.696226         2.242135        -1.761491
 H        -0.099029        -1.188722         0.399046
 H         0.493858        -0.579889        -1.349219
 H         1.504578        -1.528675        -0.193965
