19
Iteration:  1498
 C        -0.967529         2.317175        -0.140857
 C         0.211466         1.795263         0.543076
 O         0.365136         1.939348         1.969050
 C         1.562912         1.070916         1.907484
 C         2.585093         1.962733         1.229539
 C         1.611181         1.910978        -0.019651
 O         1.656785         2.457529        -1.242735
 C         1.084004         0.516208         0.502060
 C         0.853084        -0.813799        -0.130875
 H        -1.873322         2.146867         0.522733
 H        -0.762830         3.375980        -0.095834
 H        -1.090386         1.981317        -1.241020
 H         1.665365         0.663025         2.845083
 H         2.708496         2.819651         1.945437
 H         3.574028         1.452053         1.180801
 H         2.545131         2.149607        -1.591813
 H         0.199126        -1.434153         0.527172
 H         0.317597        -0.717402        -1.064521
 H         1.773008        -1.526980        -0.360737
