19
Iteration:  1912
 C        -1.108624         2.234953        -0.067971
 C         0.153669         1.871664         0.628560
 O         0.283031         1.880816         2.058360
 C         1.539584         1.014397         1.842986
 C         2.656257         2.006388         1.163910
 C         1.648369         1.925160        -0.040991
 O         1.889313         2.415743        -1.326670
 C         1.010901         0.640114         0.496858
 C         0.847125        -0.728638        -0.087881
 H        -2.030302         1.669551         0.388487
 H        -1.332192         3.268993        -0.272795
 H        -0.983134         1.695751        -1.028508
 H         1.718152         0.265537         2.746212
 H         2.990739         2.900775         1.720429
 H         3.489752         1.417471         0.927300
 H         2.686737         2.074126        -1.741704
 H         0.394348        -1.364690         0.697802
 H         0.188270        -0.716746        -1.015242
 H         1.845102        -1.146023        -0.372607
