19
Iteration:  4235charge 0 multiplicity 1
 C        -1.009402         2.385660        -0.056153
 C         0.166241         1.784954         0.571776
 O         0.382268         1.833065         2.139924
 C         1.564414         1.059345         1.847569
 C         2.624522         1.952734         1.163109
 C         1.729052         1.900062         0.005625
 O         1.769992         2.446375        -1.298178
 C         1.060548         0.545940         0.343667
 C         0.710188        -0.820898        -0.131351
 H        -1.904838         1.990570         0.364971
 H        -1.170078         3.520991         0.010733
 H        -1.028285         2.237958        -1.171803
 H         1.913777         0.392002         2.659865
 H         2.846362         2.811289         1.752273
 H         3.481266         1.307580         0.940828
 H         2.320564         3.256935        -1.346849
 H        -0.027012        -1.200692         0.668778
 H         0.075927        -0.670329        -1.066263
 H         1.607467        -1.448021        -0.231407
