19
Iteration:  2895charge 0 multiplicity 1
 C        -1.027091         2.373698         0.059848
 C         0.188431         1.816236         0.560525
 O         0.301821         1.840323         1.998092
 C         1.558265         1.088745         1.917194
 C         2.494937         2.164539         1.201471
 C         1.650230         1.899897         0.051498
 O         1.804085         2.318848        -1.254794
 C         1.037236         0.524413         0.404380
 C         0.880365        -0.864427        -0.280205
 H        -1.862684         1.731990         0.151734
 H        -1.188554         3.437761         0.389260
 H        -0.923628         2.478122        -0.977030
 H         1.976137         0.564174         2.806338
 H         2.482572         3.213393         1.592728
 H         3.541212         1.911797         1.028753
 H         2.745446         2.153691        -1.376936
 H         0.315017        -1.675879         0.084874
 H         0.561829        -0.724062        -1.230315
 H         1.956559        -1.310908        -0.356910
