19
Iteration:  4559charge 0 multiplicity 1
 C        -1.026017         2.442810         0.119703
 C         0.242845         1.801059         0.628158
 O         0.399888         1.845200         2.073727
 C         1.554714         1.078209         1.866534
 C         2.507523         1.949858         1.202046
 C         1.590498         1.855448        -0.019095
 O         1.836734         2.241254        -1.371108
 C         1.038037         0.551831         0.446790
 C         0.822584        -0.650115        -0.282095
 H        -1.956070         1.991650         0.485878
 H        -1.056085         3.505835         0.132319
 H        -1.270128         2.350452        -0.967730
 H         1.942482         0.399145         2.598299
 H         2.561476         2.856277         1.774248
 H         3.479895         1.378592         1.220056
 H         1.761693         3.163136        -1.635969
 H        -0.021126        -1.159986         0.153784
 H         0.891200        -0.487054        -1.410139
 H         1.817550        -1.373520        -0.156534
