19
Iteration:  1921charge 0 multiplicity 1
 C        -1.134471         2.245504        -0.078394
 C         0.202204         1.825776         0.578894
 O         0.292379         1.853283         2.047933
 C         1.580918         1.046409         1.848431
 C         2.581745         1.991633         1.196749
 C         1.642096         1.967033        -0.006486
 O         1.872771         2.344311        -1.309553
 C         1.097019         0.612581         0.465838
 C         0.829723        -0.664454        -0.110897
 H        -2.017229         1.837868         0.593171
 H        -1.258598         3.370318        -0.202033
 H        -1.197099         1.794762        -1.021355
 H         1.878940         0.556754         2.787501
 H         2.712853         2.961716         1.724411
 H         3.514177         1.553118         0.917562
 H         2.722265         1.974026        -1.590816
 H         0.333219        -1.307974         0.644766
 H         0.107897        -0.625323        -1.048656
 H         1.666156        -1.199879        -0.368795
