19
Iteration:  2670
 C        -1.177086         2.392003        -0.143778
 C         0.136281         1.841015         0.684001
 O         0.346754         1.836636         2.083812
 C         1.506073         1.038055         1.898194
 C         2.603835         2.051781         1.185579
 C         1.598342         1.926747         0.010883
 O         1.765498         2.371130        -1.288777
 C         1.060633         0.577754         0.395555
 C         1.053293        -0.848159        -0.147027
 H        -2.102945         1.705719        -0.095648
 H        -1.492756         3.429218         0.269437
 H        -0.934130         2.603452        -1.195109
 H         1.889728         0.226264         2.608500
 H         2.830521         2.933775         1.720082
 H         3.518642         1.514745         0.919824
 H         2.718467         2.544116        -1.440066
 H         0.471565        -1.591804         0.474076
 H         0.565324        -0.956195        -1.215432
 H         2.050698        -1.115724        -0.381397
