19
Iteration:  1637charge 0 multiplicity 1
 C        -1.072326         2.406408        -0.132196
 C         0.168559         1.837808         0.597820
 O         0.353434         1.839842         2.077562
 C         1.544868         1.133558         1.883338
 C         2.656751         1.995178         1.178248
 C         1.637823         1.935227         0.001704
 O         1.738678         2.376287        -1.276618
 C         1.040428         0.594595         0.418948
 C         0.882374        -0.865393        -0.090535
 H        -1.808851         1.496182        -0.046158
 H        -1.630473         3.332856         0.124101
 H        -0.843732         2.419634        -1.102583
 H         1.722695         0.370812         2.656786
 H         2.880631         2.976236         1.684346
 H         3.564963         1.490553         0.919033
 H         2.498633         2.048808        -1.759945
 H         0.031703        -1.296031         0.432353
 H         0.738058        -0.868068        -1.173175
 H         1.762370        -1.503494         0.146502
