19
Iteration:  1882
 C        -1.040990         2.202235        -0.129643
 C         0.194370         1.873999         0.535709
 O         0.394417         2.067811         1.999523
 C         1.528722         1.039188         1.905922
 C         2.552437         1.832584         1.107632
 C         1.572683         1.907754        -0.030949
 O         1.795928         2.598320        -1.180551
 C         1.000728         0.506379         0.491527
 C         0.902794        -0.842444        -0.051952
 H        -1.810033         1.526971         0.136490
 H        -1.444716         3.159334         0.004360
 H        -0.894089         2.250043        -1.311759
 H         1.818154         0.421628         2.846866
 H         2.998473         2.597287         1.773014
 H         3.376321         1.084338         0.769919
 H         2.351455         2.117881        -1.816890
 H         0.319434        -1.409963         0.696087
 H         0.380402        -0.960827        -0.918929
 H         2.021713        -1.293484        -0.237545
