19
Iteration:  2166charge 0 multiplicity 1
 C        -1.171320         2.075258        -0.036973
 C         0.191632         1.865597         0.541152
 O         0.381828         2.069837         2.083278
 C         1.494267         1.057014         1.886865
 C         2.631686         1.914154         1.187020
 C         1.646014         1.931396        -0.020067
 O         1.832532         2.571858        -1.240932
 C         1.030135         0.566897         0.427231
 C         0.907274        -0.818348        -0.197298
 H        -1.744283         1.556981         0.666884
 H        -1.429775         3.114818        -0.136930
 H        -1.122477         1.492669        -1.053065
 H         1.692693         0.466356         2.783702
 H         3.040271         2.784675         1.722587
 H         3.383261         1.142330         1.020934
 H         2.114103         1.879383        -1.866940
 H        -0.060988        -1.249002         0.090143
 H         0.875965        -0.690376        -1.292991
 H         1.761396        -1.477945         0.116698
