19
Iteration:   995
 C        -1.293316         2.312119         0.042705
 C         0.088358         1.770541         0.574726
 O         0.302256         1.840408         2.036218
 C         1.589675         1.095686         1.828743
 C         2.563644         2.072304         1.240715
 C         1.731813         1.907152        -0.017108
 O         1.951408         2.272349        -1.329951
 C         1.133108         0.626506         0.480737
 C         0.936056        -0.673560        -0.235569
 H        -2.218175         1.630358         0.385628
 H        -1.405596         3.385492         0.335321
 H        -1.362301         2.216123        -1.047708
 H         1.676611         0.448838         2.750192
 H         2.364609         3.074493         1.732371
 H         3.557905         1.707765         1.154924
 H         2.781194         1.919507        -1.616578
 H         0.327632        -1.252668         0.464815
 H         0.144261        -0.590287        -0.949768
 H         1.785988        -1.305512        -0.511745
