19
Iteration:  4162
 C        -1.040882         2.243545         0.041263
 C         0.230175         1.900485         0.602356
 O         0.404355         1.911559         2.019408
 C         1.583952         1.020812         1.855190
 C         2.581547         1.940801         1.138568
 C         1.564349         1.925028         0.033927
 O         1.975469         2.295105        -1.264237
 C         0.983999         0.533349         0.507768
 C         0.728515        -0.651231        -0.290876
 H        -1.872310         1.786348         0.699653
 H        -1.167001         3.290083         0.303454
 H        -1.354761         2.398030        -0.957955
 H         1.981089         0.443701         2.750662
 H         2.808596         2.914103         1.705090
 H         3.466409         1.276369         1.017263
 H         1.248737         2.706492        -1.723178
 H        -0.136629        -1.196479         0.004290
 H         0.408269        -0.268213        -1.219748
 H         1.669460        -1.248070        -0.339549
