19
Iteration:   728
 C        -1.100644         2.315324        -0.064220
 C         0.202126         1.779609         0.544980
 O         0.360610         1.791098         2.038270
 C         1.533779         1.035234         1.826056
 C         2.487029         2.069804         1.179912
 C         1.638078         1.942621         0.008096
 O         1.812508         2.397862        -1.301798
 C         1.069308         0.608547         0.425189
 C         0.923890        -0.748378        -0.044247
 H        -1.930380         1.755517         0.288129
 H        -1.152767         3.338232         0.350847
 H        -1.032696         2.397710        -1.186589
 H         1.881837         0.423200         2.547289
 H         2.315744         3.001047         1.616740
 H         3.529408         1.890591         1.113261
 H         2.638488         1.979828        -1.494637
 H         0.004565        -1.159988         0.495201
 H         0.840053        -0.897193        -1.179185
 H         1.786050        -1.417655         0.133881
