19
Iteration:  4255
 C        -0.959415         2.402155         0.009811
 C         0.214806         1.874395         0.672795
 O         0.386466         1.791818         2.069127
 C         1.591210         0.958479         1.868262
 C         2.541553         2.033448         1.156561
 C         1.572728         1.927135        -0.027478
 O         1.869703         2.418301        -1.415597
 C         1.009415         0.534921         0.478905
 C         0.706564        -0.876204        -0.169917
 H        -1.820937         1.989414         0.385703
 H        -0.888418         3.463783         0.147708
 H        -0.903273         2.399326        -1.081821
 H         1.715630         0.441613         2.774279
 H         2.571375         3.017929         1.558603
 H         3.536781         1.606343         0.982063
 H         2.374960         3.252515        -1.197138
 H         0.033640        -1.475906         0.553003
 H         0.163086        -0.646850        -1.169086
 H         1.693173        -1.304031        -0.300397
