19
Iteration:  3966charge 0 multiplicity 1
 C        -1.192270         2.222152         0.069461
 C         0.198914         1.865541         0.578801
 O         0.364013         1.919729         2.027699
 C         1.640792         1.023096         1.831523
 C         2.598249         1.970851         1.170490
 C         1.595916         1.897799         0.024191
 O         2.042420         2.345810        -1.238916
 C         1.044993         0.642706         0.482962
 C         0.735535        -0.736357        -0.271080
 H        -2.049841         1.612845         0.559754
 H        -1.410795         3.228532         0.027666
 H        -1.292602         2.015203        -1.018321
 H         2.035503         0.352129         2.623362
 H         2.782610         2.948470         1.572945
 H         3.526472         1.508323         0.859364
 H         1.325232         2.956768        -1.459429
 H        -0.082313        -1.205513         0.313445
 H         0.354593        -0.491978        -1.308818
 H         1.554131        -1.435215        -0.441501
