19
Iteration:  1406charge 0 multiplicity 1
 C        -0.962979         2.256611         0.014564
 C         0.278134         1.804102         0.548972
 O         0.302124         1.871693         1.979949
 C         1.473795         1.122442         1.887317
 C         2.567329         2.140141         1.186181
 C         1.683695         1.850880         0.011668
 O         1.803956         2.294901        -1.291419
 C         1.055110         0.551408         0.441979
 C         0.817696        -0.702951        -0.191293
 H        -1.827185         1.653357         0.356791
 H        -1.172559         3.160320         0.712419
 H        -1.149251         2.554745        -0.989987
 H         1.476196         0.479806         2.828514
 H         2.422478         3.104497         1.744412
 H         3.644121         1.895545         1.092439
 H         2.475989         1.775289        -1.729829
 H         0.027795        -1.124709         0.432401
 H         0.435241        -0.632088        -1.236722
 H         1.714387        -1.437273        -0.045993
