19
Iteration:  1430charge 0 multiplicity 1
 C        -1.159395         2.325087        -0.033764
 C         0.163489         1.851499         0.631756
 O         0.305706         1.945757         1.998732
 C         1.560147         1.086370         1.866509
 C         2.599151         1.944194         1.210262
 C         1.637813         1.964172        -0.034456
 O         1.907095         2.453411        -1.377021
 C         1.062239         0.503672         0.497665
 C         0.871344        -0.883723        -0.112938
 H        -2.150951         1.733549         0.236959
 H        -1.452066         3.317213         0.464208
 H        -1.094016         2.468180        -1.062010
 H         1.677810         0.413486         2.684147
 H         2.724083         2.942509         1.780885
 H         3.596035         1.561326         0.998804
 H         2.549999         1.883595        -1.815304
 H         0.093614        -1.417517         0.439567
 H         0.675621        -0.861754        -1.134284
 H         1.854017        -1.545890         0.134890
