19
Iteration:   456charge 0 multiplicity 1
 C        -0.994281         2.283100        -0.066044
 C         0.257317         1.838264         0.538861
 O         0.285595         1.812842         2.045810
 C         1.512795         1.035737         1.850577
 C         2.514773         2.102678         1.271082
 C         1.644248         1.980461         0.026890
 O         1.741495         2.300763        -1.319208
 C         1.192223         0.576187         0.443438
 C         0.823790        -0.703909        -0.119056
 H        -1.844706         1.936475         0.467949
 H        -1.011769         3.395007        -0.006812
 H        -0.987137         1.898983        -1.110771
 H         1.923884         0.477165         2.595429
 H         2.384003         3.121373         1.681728
 H         3.537359         1.766596         1.033355
 H         2.557004         1.863598        -1.683139
 H         0.206700        -1.407763         0.509021
 H         0.327715        -0.550581        -1.141517
 H         1.754157        -1.301314        -0.337557
