19
Iteration:  1046
 C        -1.112343         2.184819        -0.170429
 C         0.168966         1.800649         0.595290
 O         0.410194         2.008744         2.016753
 C         1.537197         1.056277         1.893628
 C         2.590302         1.970342         1.216047
 C         1.645371         1.847794         0.029184
 O         1.743214         2.508256        -1.213285
 C         1.065551         0.562239         0.525279
 C         0.888570        -0.777592        -0.174839
 H        -1.988611         1.615901         0.308152
 H        -1.177085         3.293866        -0.038444
 H        -1.009753         1.998795        -1.213434
 H         1.659159         0.539685         2.889863
 H         2.883699         2.980365         1.503350
 H         3.427782         1.238447         0.963329
 H         2.361895         1.989458        -1.791548
 H         0.091333        -1.501293         0.166172
 H         0.669717        -0.448162        -1.347878
 H         1.916970        -1.334145        -0.275594
