19
Iteration:  1913
 C        -1.118331         2.245636        -0.065077
 C         0.160035         1.864149         0.621657
 O         0.280172         1.876278         2.056934
 C         1.544947         1.011859         1.836931
 C         2.649277         2.007559         1.168703
 C         1.646275         1.929203        -0.042055
 O         1.888354         2.405008        -1.322694
 C         1.024405         0.640163         0.502833
 C         0.837352        -0.716260        -0.094893
 H        -2.004548         1.691824         0.386588
 H        -1.325649         3.252645        -0.261039
 H        -0.997414         1.661808        -1.046329
 H         1.740959         0.300287         2.775882
 H         2.960240         2.902216         1.729988
 H         3.514067         1.431584         0.910566
 H         2.701679         2.071022        -1.746372
 H         0.397573        -1.343290         0.702509
 H         0.206579        -0.704217        -0.977419
 H         1.874153        -1.174414        -0.377635
