19
Iteration:  1479
 C        -1.013904         2.334100        -0.104203
 C         0.198859         1.844960         0.570790
 O         0.336172         1.989189         2.053405
 C         1.455358         1.020269         1.893587
 C         2.650599         1.899930         1.223342
 C         1.671561         1.935442        -0.004795
 O         1.712487         2.531772        -1.340554
 C         0.963238         0.489099         0.443376
 C         0.926569        -0.887120        -0.043777
 H        -1.863126         1.952896         0.331857
 H        -1.225967         3.371472        -0.133343
 H        -0.904570         1.849020        -1.199323
 H         1.796128         0.315682         2.749464
 H         3.076157         2.808200         1.555033
 H         3.529505         1.275098         0.914674
 H         2.623151         2.482833        -1.753680
 H         0.261787        -1.579095         0.508790
 H         0.516781        -0.802038        -1.151733
 H         1.869733        -1.270514         0.016073
