19
Iteration:   686charge 0 multiplicity 1
 C        -1.198196         2.306138        -0.046194
 C         0.191286         1.692243         0.499613
 O         0.338659         1.919570         2.000546
 C         1.526760         1.057373         1.896645
 C         2.582116         2.010974         1.202170
 C         1.612606         1.973826        -0.054079
 O         1.872974         2.546095        -1.297744
 C         1.101631         0.493717         0.489802
 C         0.884650        -0.867427        -0.048781
 H        -2.020150         1.871933         0.518098
 H        -1.234981         3.342647         0.231329
 H        -1.298380         2.088337        -1.121283
 H         1.771679         0.755176         2.840567
 H         2.798471         2.963765         1.786708
 H         3.496202         1.414552         0.967284
 H         2.547902         2.112223        -1.861736
 H         0.024249        -1.431986         0.232759
 H         0.853642        -0.797303        -1.213566
 H         1.958414        -1.397494         0.083589
