19
Iteration:  1126
 C        -1.045052         2.310562         0.071925
 C         0.184859         1.770750         0.530572
 O         0.271925         1.827606         2.017344
 C         1.528004         1.046197         1.851479
 C         2.532451         2.168795         1.186477
 C         1.644879         2.009336        -0.003599
 O         1.936241         2.432592        -1.319271
 C         1.043725         0.560976         0.438826
 C         0.831757        -0.907189        -0.135498
 H        -1.879853         1.733602         0.539470
 H        -1.151539         3.405207         0.163933
 H        -0.913349         2.028795        -0.991369
 H         1.904805         0.541243         2.703144
 H         2.533599         3.182408         1.665677
 H         3.551314         1.867540         1.105403
 H         2.511201         1.717690        -1.688841
 H         0.115928        -1.415019         0.588898
 H         0.399211        -0.816832        -1.279721
 H         1.645212        -1.547779        -0.279722
