19
Iteration:  3910charge 0 multiplicity 1
 C        -1.066225         2.297116        -0.044091
 C         0.177695         1.862568         0.568291
 O         0.402362         1.878800         2.030367
 C         1.516263         1.042217         1.878057
 C         2.674234         1.938203         1.193159
 C         1.653389         1.928567         0.047126
 O         1.676056         2.327244        -1.229897
 C         1.043696         0.609025         0.471372
 C         0.888356        -0.653405        -0.256085
 H        -1.918902         1.627553         0.272163
 H        -1.335067         3.231291         0.413915
 H        -1.166490         2.246127        -1.195281
 H         1.717950         0.322759         2.659953
 H         2.834763         2.939257         1.588392
 H         3.625139         1.389342         0.963917
 H         2.602823         2.042195        -1.454090
 H         0.071596        -1.283442         0.182688
 H         0.590463        -0.418250        -1.306037
 H         1.766331        -1.313286        -0.242818
