19
Iteration:  4068
 C        -1.006118         2.396260        -0.056454
 C         0.218324         1.936480         0.595892
 O         0.388734         1.850360         2.089578
 C         1.488982         1.011242         1.888286
 C         2.663606         1.919347         1.127540
 C         1.678879         1.835756        -0.044692
 O         1.699994         2.425564        -1.251045
 C         0.952792         0.555183         0.472497
 C         0.867190        -0.812977        -0.227989
 H        -1.808805         1.812019         0.426906
 H        -1.176151         3.499016         0.362459
 H        -0.955452         2.472313        -1.130048
 H         1.727910         0.457143         2.834983
 H         2.922318         2.910069         1.455752
 H         3.509090         1.270960         1.067111
 H         2.490654         3.001603        -1.412092
 H         0.170246        -1.484952         0.291987
 H         0.238372        -0.816948        -1.127123
 H         1.789828        -1.266260        -0.266971
