19
Iteration:  2802charge 0 multiplicity 1
 C        -1.051527         2.138370         0.009645
 C         0.244740         1.744191         0.515012
 O         0.315348         1.917751         1.960608
 C         1.540932         1.100447         1.861254
 C         2.488811         2.015308         1.231879
 C         1.623310         2.023890        -0.009019
 O         1.902557         2.545872        -1.227825
 C         1.077358         0.455986         0.456846
 C         0.782572        -0.820007        -0.163223
 H        -1.763561         1.511219         0.635512
 H        -1.115867         3.217795         0.110706
 H        -1.360450         1.971400        -1.094074
 H         1.898486         0.403514         2.726015
 H         2.721396         2.996488         1.559637
 H         3.455805         1.615859         0.894107
 H         2.873774         2.681639        -1.363625
 H         0.053835        -1.491687         0.412334
 H         0.285000        -0.461148        -1.208390
 H         1.685413        -1.387624        -0.246048
