19
Iteration:  2762charge 0 multiplicity 1
 C        -1.157307         2.169493        -0.002938
 C         0.171342         1.806970         0.580927
 O         0.301886         1.770481         2.095945
 C         1.580665         1.039430         1.845980
 C         2.460034         2.108565         1.210970
 C         1.710280         1.945688        -0.027543
 O         1.943250         2.364388        -1.333830
 C         1.082862         0.682259         0.447241
 C         0.822265        -0.658273        -0.203831
 H        -1.913330         1.675060         0.609960
 H        -1.217467         3.249538         0.073017
 H        -1.276971         1.923269        -1.090925
 H         1.872020         0.409959         2.654679
 H         2.424020         3.036017         1.903554
 H         3.492165         1.694251         1.265390
 H         2.787871         1.991423        -1.612020
 H        -0.030906        -1.174842         0.172417
 H         0.731191        -0.494975        -1.198264
 H         1.862614        -1.228582        -0.202497
