19
Iteration:  3914charge 0 multiplicity 1
 C        -1.106449         2.292755        -0.053982
 C         0.212114         1.861569         0.598281
 O         0.385957         1.908649         2.047290
 C         1.528771         1.017049         1.869981
 C         2.669025         1.925657         1.194547
 C         1.660939         1.920570         0.051251
 O         1.689293         2.321253        -1.255507
 C         1.072630         0.625228         0.464294
 C         0.871944        -0.676713        -0.261019
 H        -1.906175         1.593851         0.249546
 H        -1.473839         3.267240         0.291835
 H        -1.276214         2.275165        -1.064500
 H         1.677081         0.351306         2.768055
 H         2.857947         2.885999         1.681479
 H         3.550429         1.387941         0.962356
 H         2.620279         2.236714        -1.493940
 H         0.091919        -1.218552         0.205958
 H         0.699940        -0.407975        -1.289941
 H         1.740567        -1.273632        -0.355972
