19
Iteration:   904charge 0 multiplicity 1
 C        -0.991526         2.255807        -0.163497
 C         0.140634         1.820562         0.698959
 O         0.305211         1.925471         2.118084
 C         1.539616         1.093264         1.899811
 C         2.624241         1.928842         1.240519
 C         1.590750         1.897817        -0.045483
 O         1.686955         2.527580        -1.334471
 C         1.093844         0.553597         0.461369
 C         0.946967        -0.804144        -0.140212
 H        -1.944740         1.584295         0.113746
 H        -1.087791         3.388522        -0.107205
 H        -0.700683         1.950188        -1.245084
 H         1.633123         0.351931         2.663924
 H         2.929215         2.892973         1.614786
 H         3.464921         1.307145         0.805314
 H         2.504784         2.348190        -1.858883
 H         0.056300        -1.310181         0.315677
 H         0.836357        -0.911944        -1.342374
 H         1.785616        -1.419207         0.074692
