19
Iteration:  3477
 C        -0.975492         2.347829        -0.072058
 C         0.216187         1.810508         0.594440
 O         0.336593         1.800658         1.929548
 C         1.566239         1.070887         1.868213
 C         2.591712         2.063285         1.242231
 C         1.647208         1.944666         0.020588
 O         1.690218         2.476665        -1.253436
 C         1.122900         0.539570         0.353785
 C         0.826282        -0.849162        -0.047873
 H        -1.759693         1.728715         0.174642
 H        -1.019266         3.306827         0.405697
 H        -0.888536         2.513649        -1.098458
 H         1.745967         0.451258         2.698518
 H         2.451546         3.032238         1.733896
 H         3.478252         1.462862         1.097410
 H         2.213833         1.896561        -1.828064
 H        -0.010502        -1.288225         0.669942
 H         0.358659        -0.780897        -1.047212
 H         1.755038        -1.518506        -0.159024
