19
Iteration:  3724charge 0 multiplicity 1
 C        -1.027297         2.189654        -0.041063
 C         0.214770         1.789669         0.597202
 O         0.333904         1.889396         2.013279
 C         1.647270         1.022979         1.924030
 C         2.584547         2.122893         1.371476
 C         1.590416         1.998717        -0.014773
 O         1.808396         2.390763        -1.321601
 C         1.206773         0.582565         0.410911
 C         0.690197        -0.745732        -0.253250
 H        -1.915312         1.608011         0.358099
 H        -1.296324         3.208365         0.300589
 H        -1.026609         2.003478        -1.185156
 H         1.673652         0.442898         2.835311
 H         2.688201         3.054069         1.849557
 H         3.592256         1.760737         1.063274
 H         2.026716         1.559809        -1.825284
 H        -0.248709        -1.145252         0.301577
 H         0.540879        -0.536072        -1.383751
 H         1.510248        -1.591725        -0.333481
