19
Iteration:  4644
 C        -1.076239         2.330933        -0.016629
 C         0.257824         1.849189         0.535643
 O         0.387042         1.863985         2.048738
 C         1.589229         1.003306         1.851531
 C         2.622086         1.987886         1.164674
 C         1.636050         1.926371        -0.003757
 O         1.843720         2.396641        -1.216740
 C         1.035880         0.554922         0.369297
 C         0.692470        -0.783535        -0.189732
 H        -1.907576         1.756780         0.503819
 H        -1.279783         3.377510         0.371961
 H        -1.003796         2.124047        -1.076846
 H         2.033266         0.459995         2.633876
 H         2.987883         2.839619         1.775392
 H         3.564979         1.438260         0.937558
 H         1.790542         3.388775        -1.096050
 H         0.195564        -1.382214         0.636947
 H         0.012962        -0.848337        -1.053234
 H         1.526735        -1.387684        -0.501772
