19
Iteration:  4331
 C        -1.116712         2.385565         0.069891
 C         0.105500         1.897438         0.611077
 O         0.474855         1.982626         2.061145
 C         1.571800         1.064643         1.922245
 C         2.616142         1.843062         1.180726
 C         1.626948         1.847108         0.004423
 O         1.870941         2.205758        -1.270963
 C         0.923193         0.606697         0.451428
 C         0.901540        -0.682208        -0.368170
 H        -1.929578         1.636973         0.270011
 H        -1.586629         3.345629         0.315344
 H        -0.926803         2.297190        -1.076398
 H         1.756606         0.635251         2.869496
 H         3.035106         2.737487         1.665749
 H         3.470101         1.177550         0.826770
 H         1.164788         2.834490        -1.419463
 H         0.090305        -1.358186         0.092435
 H         0.677258        -0.414566        -1.473239
 H         1.879507        -1.089316        -0.188925
