19
Iteration:  4624charge 0 multiplicity 1
 C        -1.012980         2.320784         0.002173
 C         0.179676         1.801402         0.662682
 O         0.416807         1.960862         2.053810
 C         1.505341         0.977291         1.849933
 C         2.652256         1.822835         1.168721
 C         1.604908         2.002641        -0.020741
 O         1.859680         2.502410        -1.372835
 C         1.007108         0.556246         0.500569
 C         0.746337        -0.836474        -0.196801
 H        -1.903394         1.741341         0.249096
 H        -1.079576         3.306814         0.367094
 H        -0.737671         2.085141        -0.993406
 H         1.543289         0.241840         2.644351
 H         2.886936         2.740127         1.649190
 H         3.635425         1.346317         1.082026
 H         1.305564         3.301550        -1.344252
 H         0.307800        -1.461209         0.525513
 H         0.348371        -0.770040        -1.217982
 H         1.777803        -1.308474        -0.477416
