19
Iteration:  2689charge 0 multiplicity 1
 C        -0.975067         2.273739        -0.078049
 C         0.190042         1.793241         0.595627
 O         0.317534         1.971756         2.066583
 C         1.491713         1.039779         1.863852
 C         2.552416         1.926815         1.205007
 C         1.572123         1.958398         0.031582
 O         1.653455         2.399714        -1.278707
 C         0.998997         0.523585         0.492435
 C         1.076580        -0.749157        -0.230017
 H        -1.743622         1.549018        -0.084248
 H        -1.243766         3.288911         0.343374
 H        -0.743429         2.533634        -1.059158
 H         1.791376         0.657527         2.778358
 H         2.878470         2.838426         1.667104
 H         3.429317         1.350236         0.998964
 H         2.585991         2.315009        -1.504442
 H         0.493779        -1.511483         0.335160
 H         0.741815        -0.726663        -1.350083
 H         2.072833        -1.063892        -0.311720
