19
Iteration:  1650charge 0 multiplicity 1
 C        -0.994634         2.361756        -0.136614
 C         0.216382         1.802160         0.622384
 O         0.282079         1.857417         2.101791
 C         1.577217         0.990937         1.843987
 C         2.540797         2.065352         1.213793
 C         1.659327         1.917673        -0.022799
 O         1.704024         2.415456        -1.376351
 C         1.127763         0.576101         0.443996
 C         0.855709        -0.791087        -0.054349
 H        -2.067553         1.889864        -0.029534
 H        -0.964767         3.337219         0.358173
 H        -0.795103         2.581972        -1.178218
 H         1.919266         0.407282         2.659793
 H         2.750365         3.068146         1.698812
 H         3.439666         1.405162         1.161290
 H         2.372299         1.797406        -1.786373
 H         0.014353        -1.229964         0.495226
 H         0.630311        -0.891183        -1.057880
 H         1.821292        -1.434892         0.126075
