19
Iteration:   397charge 0 multiplicity 1
 C        -1.140862         2.134134        -0.013159
 C         0.212038         1.884643         0.574590
 O         0.340413         1.999825         2.014607
 C         1.484079         1.109500         1.897803
 C         2.591298         1.836616         1.155556
 C         1.583550         1.929080        -0.030167
 O         1.923639         2.504440        -1.278654
 C         1.004385         0.571453         0.485619
 C         0.892792        -0.769576        -0.123016
 H        -1.883232         1.305966         0.288160
 H        -1.712656         3.098814        -0.058389
 H        -1.058491         1.961728        -1.109946
 H         1.709562         0.555832         2.879468
 H         2.932161         2.916815         1.602817
 H         3.600342         1.390823         0.751673
 H         2.725331         1.997898        -1.546163
 H         0.392522        -1.436187         0.560642
 H         0.254419        -0.656573        -1.003462
 H         1.981757        -1.171623        -0.523169
