19
Iteration:  4202
 C        -1.030355         2.279832        -0.056070
 C         0.261025         1.872164         0.628907
 O         0.414075         1.900219         2.101192
 C         1.576238         1.002143         1.825123
 C         2.566937         1.843825         1.170162
 C         1.651393         1.951656        -0.003418
 O         1.847823         2.436254        -1.321538
 C         0.975417         0.615332         0.461392
 C         0.715515        -0.782702        -0.167786
 H        -1.734643         1.658155         0.430810
 H        -1.180089         3.459048        -0.010596
 H        -1.016543         1.943199        -1.144089
 H         1.794604         0.503012         2.747737
 H         2.952359         2.684079         1.738757
 H         3.413045         1.242395         0.794624
 H         1.765028         3.437031        -1.302481
 H        -0.032970        -1.327325         0.490581
 H         0.351405        -0.579329        -1.240192
 H         1.604467        -1.422888        -0.297675
