19
Iteration:    28
 C        -1.008735         2.406037        -0.049966
 C         0.263466         1.750801         0.603026
 O         0.263185         1.787024         2.088590
 C         1.543082         1.103520         1.893392
 C         2.508875         2.194140         1.272352
 C         1.640092         1.925658        -0.006981
 O         1.793146         2.208692        -1.363482
 C         1.197213         0.622135         0.461111
 C         0.848743        -0.768653        -0.216940
 H        -2.054710         2.137763         0.373709
 H        -1.003492         3.507000         0.290408
 H        -1.131496         2.273678        -1.186533
 H         1.847068         0.302494         2.654759
 H         2.319455         3.217017         1.662741
 H         3.591398         1.989772         1.120185
 H         2.080172         1.417798        -1.821613
 H         0.169844        -1.443154         0.503908
 H         0.220244        -0.619783        -1.120623
 H         1.845653        -1.155011        -0.567622
