19
Iteration:   950charge 0 multiplicity 1
 C        -1.120664         2.260671        -0.094963
 C         0.167163         1.828450         0.644295
 O         0.325457         2.009973         2.070823
 C         1.534323         1.033483         1.959673
 C         2.567263         2.000212         1.204068
 C         1.635608         1.858544        -0.016326
 O         1.780745         2.445841        -1.313171
 C         1.107093         0.522459         0.439477
 C         0.949122        -0.784179        -0.201949
 H        -2.041856         1.486430         0.064791
 H        -1.276340         3.331396         0.223692
 H        -0.909531         2.268022        -1.145294
 H         1.907713         0.472120         2.896702
 H         2.629361         2.964259         1.776862
 H         3.483909         1.416671         1.086453
 H         2.421040         1.879020        -1.743203
 H         0.246240        -1.520841         0.198968
 H         0.506310        -0.552518        -1.248406
 H         1.946772        -1.295463        -0.459050
