19
Iteration:  1618
 C        -1.077674         2.215153        -0.072043
 C         0.212729         1.864471         0.596792
 O         0.365569         2.032690         1.995016
 C         1.550197         1.044086         1.875385
 C         2.577081         1.923795         1.101143
 C         1.577008         1.908217        -0.001003
 O         1.819117         2.422200        -1.237501
 C         0.949831         0.534172         0.502825
 C         0.892326        -0.755359        -0.127780
 H        -1.932906         1.460432         0.081304
 H        -1.436395         3.051197         0.488063
 H        -0.838569         2.573260        -1.140777
 H         1.780164         0.520343         2.781477
 H         2.999351         2.854883         1.588217
 H         3.486058         1.267034         0.927039
 H         2.689990         2.185520        -1.533503
 H         0.144866        -1.505189         0.176515
 H         0.802035        -0.746897        -1.159447
 H         1.860829        -1.374288         0.147353
