19
Iteration:   278
 C        -1.083116         2.337047         0.029088
 C         0.202047         1.833203         0.569602
 O         0.266920         1.931523         1.996118
 C         1.509811         1.075393         1.852801
 C         2.595217         1.986782         1.216535
 C         1.652087         1.949783         0.054707
 O         1.782971         2.348709        -1.353967
 C         1.016619         0.594821         0.424837
 C         1.006954        -0.820455        -0.138219
 H        -1.956022         1.766935         0.456065
 H        -1.599544         3.310525         0.134388
 H        -1.059303         2.170335        -1.051201
 H         1.681246         0.423464         2.769665
 H         3.013309         2.893069         1.720816
 H         3.468647         1.340537         1.001765
 H         2.562233         2.009356        -1.849139
 H         0.252288        -1.407087         0.559587
 H         0.673525        -0.815836        -1.195591
 H         2.059560        -1.278442         0.043963
