19
Iteration:  3398
 C        -1.167845         2.344473         0.012405
 C         0.189389         1.821914         0.549665
 O         0.350779         1.940903         1.997335
 C         1.539229         1.060434         1.913004
 C         2.590918         1.869210         1.238549
 C         1.572642         1.931923         0.005312
 O         1.783258         2.413152        -1.338364
 C         1.009507         0.549721         0.532470
 C         0.993661        -0.726557        -0.210760
 H        -1.960546         1.907477         0.475403
 H        -1.307052         3.416085        -0.098006
 H        -1.085250         2.110943        -1.058644
 H         1.773682         0.498912         2.828656
 H         3.096464         2.605811         1.873693
 H         3.439970         1.263877         0.830548
 H         2.652273         2.118342        -1.651807
 H         0.496143        -1.523574         0.427885
 H         0.646299        -0.666351        -1.281001
 H         2.059226        -1.233856        -0.396299
