19
Iteration:  4030
 C        -1.045993         2.397924        -0.106750
 C         0.222723         1.758314         0.611820
 O         0.441726         1.820338         2.072001
 C         1.592687         1.007249         1.864696
 C         2.606663         1.985421         1.181380
 C         1.632383         2.012893         0.047363
 O         1.769065         2.543463        -1.255311
 C         0.979913         0.496515         0.401023
 C         0.736327        -0.824266        -0.148190
 H        -2.126406         2.143009         0.198027
 H        -0.867088         3.417358         0.093707
 H        -0.964411         2.140648        -1.217678
 H         1.797623         0.264755         2.633000
 H         2.858010         2.971602         1.659491
 H         3.517326         1.379924         0.906915
 H         2.237511         1.830514        -1.715368
 H         0.185872        -1.332091         0.728358
 H         0.266733        -0.787114        -1.171558
 H         1.721055        -1.482256        -0.412264
