19
Iteration:  4995
 C        -0.996476         2.423136         0.125613
 C         0.183951         1.750734         0.593200
 O         0.378622         1.939977         2.085317
 C         1.535938         0.967462         1.883747
 C         2.596904         1.882616         1.221630
 C         1.541804         1.939575        -0.030898
 O         1.740731         2.327142        -1.358383
 C         1.052885         0.540619         0.407556
 C         0.942773        -0.703452        -0.338494
 H        -1.907000         2.127128         0.580326
 H        -0.895416         3.458967         0.425440
 H        -0.882017         2.301055        -0.960020
 H         1.608733         0.228369         2.711096
 H         2.698907         2.835003         1.759062
 H         3.620795         1.480390         1.038906
 H         1.641624         3.278773        -1.414093
 H         0.343027        -1.342223         0.537517
 H         0.353286        -0.709275        -1.300108
 H         1.909956        -1.179679        -0.381998
