19
Iteration:  2483charge 0 multiplicity 1
 C        -1.200149         2.399394         0.034578
 C         0.065445         1.760789         0.603400
 O         0.312618         1.678767         2.042721
 C         1.516038         1.014034         1.771513
 C         2.557251         2.110948         1.232836
 C         1.612177         2.031655        -0.036756
 O         1.955893         2.354266        -1.301051
 C         1.087135         0.703713         0.324687
 C         1.020740        -0.786557        -0.075287
 H        -1.985804         1.742511         0.335597
 H        -1.211955         3.420531         0.582440
 H        -1.126747         2.524799        -1.021987
 H         1.776016         0.347447         2.426813
 H         2.506172         3.075524         1.730035
 H         3.617172         1.777038         1.080437
 H         2.135498         1.584409        -1.902292
 H         0.444582        -1.236838         0.773333
 H         0.352463        -1.045041        -0.963558
 H         1.989877        -1.159167        -0.190617
