19
Iteration:  2749charge 0 multiplicity 1
 C        -1.067163         2.191088        -0.021370
 C         0.219009         1.821531         0.643348
 O         0.315364         1.823984         2.086965
 C         1.492616         1.013014         1.839109
 C         2.541147         2.115595         1.254850
 C         1.532054         2.014722         0.009915
 O         1.917979         2.354168        -1.327865
 C         1.057694         0.571274         0.451996
 C         0.916542        -0.636314        -0.260669
 H        -1.975676         1.667009         0.437814
 H        -1.363095         3.223413         0.052204
 H        -0.987649         1.835418        -1.137894
 H         1.911285         0.354711         2.699806
 H         2.552572         3.112957         1.739351
 H         3.533229         1.762258         0.898825
 H         2.502938         1.603294        -1.597935
 H         0.074924        -1.237609         0.148062
 H         0.658051        -0.484530        -1.325620
 H         1.752550        -1.404488        -0.082364
