19
Iteration:   711charge 0 multiplicity 1
 C        -1.048476         2.317183         0.074940
 C         0.251175         1.821955         0.571600
 O         0.239300         1.827828         1.982203
 C         1.507865         1.058528         1.791232
 C         2.503951         2.134288         1.227876
 C         1.634029         1.919087        -0.068093
 O         1.866904         2.439158        -1.306767
 C         1.092021         0.588104         0.354365
 C         0.902877        -0.885889        -0.051000
 H        -1.876538         1.708091         0.599660
 H        -1.279331         3.339830         0.418699
 H        -1.050555         2.123963        -0.978200
 H         1.718210         0.364884         2.764410
 H         2.599916         3.196588         1.729477
 H         3.494003         1.615493         1.049676
 H         2.614451         2.147938        -1.806966
 H         0.019292        -1.295043         0.375425
 H         0.805569        -1.118095        -1.100998
 H         1.826441        -1.420985         0.302864
