19
Iteration:  2541
 C        -1.059605         2.118656        -0.108000
 C         0.173111         1.793267         0.607476
 O         0.377258         2.009140         2.005095
 C         1.551172         1.077637         1.883455
 C         2.619108         2.015561         1.252478
 C         1.607878         1.852606         0.010263
 O         1.695700         2.394880        -1.172746
 C         1.103402         0.551310         0.532693
 C         0.865023        -0.666404        -0.326671
 H        -1.941759         1.507710         0.248590
 H        -1.376974         3.117147         0.089873
 H        -0.979908         2.027431        -1.190482
 H         1.839037         0.494260         2.843034
 H         2.823101         3.094162         1.667974
 H         3.636075         1.496064         1.074984
 H         2.509268         2.384588        -1.678474
 H         0.095412        -1.362940        -0.017481
 H         0.804588        -0.325721        -1.298468
 H         1.791986        -1.435436        -0.289689
