19
Iteration:   921
 C        -0.946358         2.213743        -0.177161
 C         0.259967         1.841515         0.597843
 O         0.323437         1.929918         2.029877
 C         1.520207         1.004801         1.868779
 C         2.601346         1.944184         1.096132
 C         1.585767         2.043869         0.096405
 O         1.628091         2.461699        -1.221245
 C         1.005487         0.567133         0.486403
 C         0.949756        -0.784278        -0.120260
 H        -1.771158         1.670854         0.052421
 H        -1.187887         3.242557         0.029537
 H        -0.742922         2.080467        -1.230238
 H         1.892643         0.534721         2.791825
 H         2.941059         2.823425         1.697799
 H         3.396403         1.229809         0.969766
 H         2.435980         1.976531        -1.556000
 H         0.106662        -1.419243         0.174279
 H         0.717644        -0.647392        -1.107320
 H         1.956642        -1.350204         0.046604
