19
Iteration:  3048charge 0 multiplicity 1
 C        -1.051771         2.333964        -0.069909
 C         0.251207         1.834303         0.441932
 O         0.337472         1.728680         2.127605
 C         1.576750         0.996857         1.831311
 C         2.523555         2.128883         1.269492
 C         1.662644         1.967744        -0.039615
 O         1.846811         2.492457        -1.364799
 C         1.074128         0.573567         0.352493
 C         0.732338        -0.915297         0.005989
 H        -1.938791         1.715568         0.215086
 H        -1.240343         3.467582         0.238262
 H        -0.907759         2.368001        -1.200616
 H         1.724412         0.454062         2.838090
 H         2.308994         3.060295         1.774272
 H         3.545391         1.744312         1.111039
 H         2.786786         2.824772        -1.340619
 H         0.399914        -1.382431         0.976462
 H         0.070110        -0.945736        -0.915587
 H         1.772213        -1.519993        -0.427670
