19
Iteration:   827
 C        -1.151292         2.203714        -0.007336
 C         0.221727         1.835266         0.606105
 O         0.280433         1.865029         2.035421
 C         1.550596         1.059574         1.840891
 C         2.564377         2.059647         1.147042
 C         1.610132         1.932032        -0.029872
 O         1.919475         2.352492        -1.273914
 C         1.042463         0.609007         0.473287
 C         0.925279        -0.678127        -0.163829
 H        -1.994000         1.582317         0.420258
 H        -1.395196         3.265932         0.245635
 H        -1.009200         1.845066        -1.062094
 H         1.733492         0.518393         2.694221
 H         2.485192         3.023407         1.563462
 H         3.557303         1.573266         1.105231
 H         2.722923         1.936401        -1.566847
 H         0.344544        -1.446387         0.357689
 H         0.042545        -0.506871        -0.939457
 H         1.851678        -1.152287        -0.417630
