19
Iteration:  4710
 C        -1.116869         2.252363         0.068571
 C         0.223656         1.844891         0.588415
 O         0.408501         1.878956         2.055771
 C         1.598691         1.003641         1.796180
 C         2.607790         1.983040         1.186980
 C         1.653963         1.863569         0.034605
 O         1.886685         2.287864        -1.333559
 C         1.041667         0.566727         0.541190
 C         0.733069        -0.590353        -0.280148
 H        -2.056757         1.680541         0.413927
 H        -1.504913         3.372551         0.252026
 H        -1.058006         2.275629        -1.036767
 H         1.860833         0.364388         2.621641
 H         2.668075         2.988838         1.716048
 H         3.567159         1.410239         1.002751
 H         1.693326         3.228480        -1.267773
 H        -0.154167        -1.153719         0.084174
 H         0.492946        -0.267135        -1.318052
 H         1.572390        -1.297111        -0.271989
