19
Iteration:  3761charge 0 multiplicity 1
 C        -1.106546         2.057561        -0.108233
 C         0.226292         1.836319         0.690963
 O         0.294621         1.937870         2.100536
 C         1.617518         1.071456         1.924944
 C         2.696641         2.058073         1.212174
 C         1.658983         1.854204         0.060087
 O         1.807915         2.400984        -1.370040
 C         1.059246         0.557601         0.516507
 C         0.723211        -0.626701        -0.303949
 H        -1.945493         1.516804         0.444498
 H        -1.411294         3.115167        -0.109067
 H        -1.022335         1.884542        -1.164198
 H         1.719043         0.395501         2.814502
 H         2.889995         3.088510         1.704314
 H         3.641489         1.571423         0.956563
 H         2.765245         2.440336        -1.567836
 H        -0.152187        -1.211593        -0.130284
 H         0.388458        -0.243149        -1.282895
 H         1.676595        -1.310909        -0.276755
