19
Iteration:  4846
 C        -1.022125         2.374721         0.068889
 C         0.207652         1.802694         0.711203
 O         0.419721         1.869515         2.079133
 C         1.514916         0.967311         1.891813
 C         2.565779         1.991878         1.112181
 C         1.597397         2.003066         0.015108
 O         1.816037         2.344198        -1.333975
 C         1.074133         0.566362         0.317266
 C         0.814495        -0.795040        -0.256077
 H        -1.903504         1.815698         0.453330
 H        -1.066191         3.521592         0.218121
 H        -0.852958         2.226457        -1.057304
 H         1.740075         0.252060         2.675612
 H         2.715902         2.970577         1.610892
 H         3.471796         1.388035         1.059325
 H         1.721239         3.318908        -1.331079
 H         0.280718        -1.209465         0.554681
 H         0.097853        -0.733057        -1.044721
 H         1.696763        -1.538927        -0.408510
