19
Iteration:  2677charge 0 multiplicity 1
 C        -1.099856         2.362823        -0.141102
 C         0.136337         1.810222         0.626301
 O         0.350658         1.887627         2.105901
 C         1.537381         1.083034         1.909243
 C         2.599461         1.987343         1.200657
 C         1.567074         1.938130         0.044053
 O         1.725390         2.372407        -1.286453
 C         1.008534         0.610499         0.415878
 C         1.083697        -0.854143        -0.212735
 H        -1.916854         1.720544        -0.063556
 H        -1.483096         3.251944         0.388928
 H        -0.822603         2.489638        -1.151443
 H         1.648032         0.291961         2.544593
 H         2.776588         2.941593         1.735700
 H         3.461271         1.410595         0.910315
 H         2.674662         2.514996        -1.530488
 H         0.509072        -1.554169         0.410728
 H         0.521997        -0.885589        -1.185189
 H         2.109935        -1.225619        -0.292946
