19
Iteration:  2678
 C        -1.081708         2.355386        -0.136614
 C         0.134218         1.806380         0.612751
 O         0.348694         1.896402         2.109232
 C         1.544395         1.086520         1.901779
 C         2.595096         1.977799         1.205102
 C         1.566094         1.942152         0.048182
 O         1.718140         2.373761        -1.286638
 C         1.001199         0.609121         0.422900
 C         1.092209        -0.849968        -0.220525
 H        -1.900904         1.684550        -0.060669
 H        -1.474636         3.267218         0.411951
 H        -0.804980         2.476527        -1.132249
 H         1.608880         0.320059         2.572436
 H         2.770868         2.905093         1.702305
 H         3.444693         1.409447         0.924512
 H         2.665286         2.503557        -1.530737
 H         0.522019        -1.557169         0.430018
 H         0.507540        -0.861977        -1.230674
 H         2.061573        -1.226874        -0.266276
