19
Iteration:  3614charge 0 multiplicity 1
 C        -0.972692         2.383019        -0.091560
 C         0.122444         1.759527         0.675205
 O         0.313973         1.802597         2.130480
 C         1.580147         1.064593         1.901981
 C         2.559493         2.025358         1.186981
 C         1.587499         1.970004        -0.009288
 O         1.787209         2.451573        -1.365656
 C         1.015723         0.541382         0.490686
 C         0.908041        -0.787977        -0.205542
 H        -1.927463         1.915307         0.147034
 H        -0.946916         3.367361        -0.180278
 H        -0.857169         2.245727        -1.171695
 H         1.890663         0.582973         2.841564
 H         2.716877         2.978024         1.647605
 H         3.478916         1.468103         0.937668
 H         2.302199         1.743977        -1.791463
 H         0.451534        -1.477489         0.527883
 H         0.426184        -0.792685        -1.217505
 H         1.926210        -1.196801        -0.372189
