19
Iteration:  1745
 C        -1.252831         2.154844        -0.085943
 C         0.127679         1.949936         0.644885
 O         0.395714         2.095332         2.054136
 C         1.490228         1.096566         1.885858
 C         2.721014         1.844583         1.257755
 C         1.624525         1.882515         0.018117
 O         1.843223         2.364751        -1.278794
 C         0.999871         0.620151         0.469062
 C         0.940989        -0.755686        -0.248100
 H        -2.040198         1.581233         0.466518
 H        -1.485584         3.259733        -0.210638
 H        -1.234760         1.687554        -1.002510
 H         1.693080         0.512549         2.770590
 H         3.288816         2.737473         1.400680
 H         3.344608         1.084264         0.930159
 H         2.702759         2.034176        -1.666182
 H         0.437508        -1.534054         0.339937
 H         0.434812        -0.795696        -1.304017
 H         1.910986        -1.058980        -0.441508
