19
Iteration:  1953
 C        -1.003166         2.273589         0.057974
 C         0.257006         1.735767         0.635328
 O         0.247362         1.917079         2.009025
 C         1.596996         1.136759         1.915268
 C         2.515901         2.219257         1.246785
 C         1.727816         1.838451         0.043068
 O         1.837332         2.309898        -1.370864
 C         1.108193         0.435707         0.510473
 C         0.756443        -0.753811        -0.319339
 H        -1.926355         2.108784         0.734594
 H        -1.004953         3.427101        -0.164077
 H        -1.139425         1.881337        -0.858688
 H         1.892091         0.669007         2.808568
 H         2.120795         3.209355         1.662049
 H         3.620524         2.214642         1.135412
 H         2.476744         1.663172        -1.724754
 H        -0.117239        -1.341945         0.021986
 H         0.380231        -0.362135        -1.413935
 H         1.531245        -1.366809        -0.503247
