19
Iteration:  2796
 C        -1.096544         2.140252         0.025666
 C         0.296649         1.750800         0.521357
 O         0.283327         1.895088         1.968793
 C         1.532993         1.088036         1.869410
 C         2.521501         2.078266         1.194013
 C         1.638463         2.043313        -0.026538
 O         1.916125         2.495424        -1.213323
 C         1.113854         0.513787         0.453866
 C         0.758709        -0.848845        -0.195119
 H        -1.826881         1.688341         0.672341
 H        -1.204335         3.229971         0.211153
 H        -1.372379         1.922539        -0.980466
 H         1.714257         0.525901         2.713231
 H         2.674168         3.083317         1.750547
 H         3.445535         1.509645         0.971631
 H         2.838652         2.678445        -1.350510
 H         0.028501        -1.467014         0.276831
 H         0.374214        -0.642546        -1.102258
 H         1.646848        -1.590692        -0.384588
