19
Iteration:  2043
 C        -1.072663         2.314189        -0.027613
 C         0.198176         1.789074         0.589168
 O         0.294916         2.078805         1.968467
 C         1.532972         1.083170         1.840200
 C         2.581726         1.940580         1.149736
 C         1.608615         1.854826        -0.030138
 O         1.806173         2.555795        -1.235270
 C         0.954734         0.465421         0.509482
 C         0.995427        -0.947088        -0.116474
 H        -1.899923         1.547082         0.142935
 H        -1.340335         3.155621         0.550607
 H        -0.948092         2.593962        -1.143016
 H         1.992865         0.416655         2.726585
 H         2.813172         2.926436         1.690489
 H         3.519845         1.506327         0.831221
 H         2.354787         1.924107        -1.711679
 H         0.411798        -1.693756         0.453307
 H         0.583071        -0.957903        -1.200292
 H         1.995185        -1.192151        -0.063138
