19
Iteration:  4056charge 0 multiplicity 1
 C        -0.988556         2.437714        -0.023938
 C         0.300707         1.872761         0.651874
 O         0.346012         1.898895         2.060206
 C         1.541401         0.985890         1.857160
 C         2.572140         1.867132         1.109452
 C         1.634019         1.850843         0.014103
 O         1.687720         2.491821        -1.282350
 C         1.027689         0.521848         0.440221
 C         0.826091        -0.804208        -0.152457
 H        -1.908998         1.791443         0.100887
 H        -1.259713         3.524355         0.048727
 H        -0.816624         2.190597        -1.057339
 H         1.812003         0.251734         2.692652
 H         2.779311         2.829262         1.552330
 H         3.465150         1.354305         0.882500
 H         2.602664         2.738387        -1.372030
 H         0.300617        -1.469881         0.562022
 H         0.463767        -0.603799        -1.190078
 H         1.748952        -1.271006        -0.437714
