19
Iteration:  1180
 C        -1.086387         2.145411        -0.057765
 C         0.183860         1.950969         0.578171
 O         0.314964         2.012606         2.109815
 C         1.538418         1.073706         1.915794
 C         2.592972         1.962947         1.174321
 C         1.563092         1.959689        -0.014163
 O         1.863784         2.341783        -1.281715
 C         1.016194         0.612984         0.500354
 C         0.916202        -0.776838        -0.282787
 H        -1.752229         1.254242         0.058739
 H        -1.544982         2.994006         0.466494
 H        -0.889505         2.237038        -1.056334
 H         1.800722         0.449674         2.721589
 H         2.977222         2.901031         1.668650
 H         3.382924         1.262203         0.985118
 H         2.653204         1.870496        -1.595911
 H         0.336539        -1.567157         0.270945
 H         0.245335        -0.734190        -1.186395
 H         1.929825        -1.101460        -0.365509
