19
Iteration:  3358
 C        -1.183960         2.150526         0.007879
 C         0.181897         1.937707         0.675949
 O         0.384252         2.026870         2.043810
 C         1.543061         1.040556         1.916015
 C         2.583756         1.977721         1.244666
 C         1.629132         1.944742         0.002672
 O         1.944384         2.361882        -1.302701
 C         0.996797         0.590846         0.452936
 C         0.879841        -0.758906        -0.362857
 H        -1.865842         1.390512         0.604238
 H        -1.520515         3.207311         0.093809
 H        -1.225605         1.777560        -1.026085
 H         1.759426         0.601386         2.845552
 H         2.743648         2.937312         1.785308
 H         3.410785         1.298456         1.054978
 H         2.072424         1.593828        -1.906082
 H         0.005041        -1.337227         0.051114
 H         0.782385        -0.549602        -1.410000
 H         1.716114        -1.354824        -0.214290
