19
Iteration:  1170
 C        -1.150073         2.176139        -0.017416
 C         0.160263         1.817628         0.669872
 O         0.316299         1.986299         2.022493
 C         1.492295         1.127343         1.892466
 C         2.668525         1.993407         1.236802
 C         1.629592         1.984366         0.024665
 O         1.903420         2.364582        -1.355304
 C         1.023017         0.590100         0.459955
 C         0.859174        -0.803264        -0.236418
 H        -1.833731         1.380318         0.281376
 H        -1.544062         3.104552         0.412945
 H        -1.133756         2.383686        -1.054345
 H         1.505333         0.471154         2.705995
 H         2.969863         2.926321         1.778960
 H         3.536024         1.448344         0.982903
 H         2.701395         1.842714        -1.655894
 H         0.484414        -1.630984         0.400729
 H         0.502366        -0.669595        -1.331753
 H         1.796061        -1.120781        -0.573223
