19
Iteration:  3538charge 0 multiplicity 1
 C        -1.160875         2.011606         0.006385
 C         0.234960         1.828360         0.553513
 O         0.356868         2.015652         1.971916
 C         1.570591         1.093447         1.899920
 C         2.642503         1.941714         1.145047
 C         1.641179         1.937339         0.028309
 O         1.881450         2.415586        -1.239614
 C         0.999401         0.592745         0.520357
 C         0.771205        -0.657825        -0.239676
 H        -1.895335         1.305811         0.616399
 H        -1.462375         3.091261         0.361571
 H        -1.475186         2.035190        -1.125597
 H         1.640004         0.481756         2.824332
 H         3.020549         2.815965         1.688191
 H         3.554753         1.351277         0.880520
 H         2.856561         2.254342        -1.360868
 H        -0.099002        -1.202830        -0.067416
 H         0.756875        -0.263341        -1.268462
 H         1.599128        -1.360841        -0.251432
