19
Iteration:  1351charge 0 multiplicity 1
 C        -0.993436         2.164256        -0.148354
 C         0.243370         1.852533         0.713924
 O         0.291291         1.993922         2.068086
 C         1.581188         1.064296         1.818041
 C         2.615550         2.033392         1.126225
 C         1.630555         1.888167         0.030603
 O         1.768339         2.338602        -1.239690
 C         0.937121         0.556091         0.552576
 C         0.845293        -0.676116        -0.205038
 H        -1.775033         1.490671         0.144782
 H        -1.225768         3.273233        -0.187840
 H        -0.709034         2.004884        -1.210384
 H         1.736180         0.464307         2.793038
 H         2.970943         2.864324         1.746490
 H         3.483043         1.350166         0.939845
 H         2.428465         1.867616        -1.730855
 H         0.233998        -1.402569         0.278126
 H         0.445280        -0.320394        -1.129753
 H         1.829657        -1.128196        -0.563184
