19
Iteration:  3845charge 0 multiplicity 1
 C        -0.974947         2.470222         0.080207
 C         0.201281         1.777518         0.598244
 O         0.248903         1.815808         1.956535
 C         1.589823         1.006067         1.798368
 C         2.550288         2.007702         1.141055
 C         1.551065         1.960313         0.035045
 O         1.871148         2.336703        -1.268171
 C         1.043983         0.541620         0.387683
 C         0.961262        -0.804339        -0.089782
 H        -1.951009         1.932996         0.367236
 H        -0.952080         3.439804         0.486916
 H        -1.251804         2.498225        -1.058414
 H         1.766613         0.345680         2.634211
 H         2.438204         2.933522         1.636445
 H         3.578083         1.666797         0.941403
 H         1.185988         2.883855        -1.721581
 H         0.477209        -1.347554         0.729612
 H         0.571689        -0.696867        -1.091792
 H         1.843682        -1.246381        -0.369832
