19
Iteration:  1449
 C        -1.109302         2.306060        -0.072707
 C         0.118555         1.792778         0.530646
 O         0.400224         1.948743         2.034457
 C         1.487999         1.025068         1.816535
 C         2.587700         1.927978         1.098242
 C         1.566670         1.944424        -0.016886
 O         1.889698         2.479740        -1.214984
 C         0.936764         0.587129         0.416969
 C         0.928165        -0.803231         0.018363
 H        -1.946952         1.690995         0.247719
 H        -1.287647         3.388058         0.238307
 H        -0.933779         2.230213        -1.126188
 H         1.881428         0.355370         2.724799
 H         3.121685         2.838248         1.440414
 H         3.370091         1.228877         0.752759
 H         2.657545         2.020220        -1.538006
 H         0.205668        -1.432847         0.533106
 H         0.825000        -0.892276        -1.128090
 H         1.957465        -1.265628         0.230755
