19
Iteration:  3662charge 0 multiplicity 1
 C        -1.145465         2.385990        -0.061378
 C         0.120900         1.769013         0.524575
 O         0.393813         1.950642         1.969786
 C         1.510595         1.049403         1.862693
 C         2.660633         1.877704         1.250267
 C         1.598134         1.943544        -0.033341
 O         1.743406         2.534071        -1.256352
 C         0.999261         0.509111         0.437385
 C         0.986475        -0.909437        -0.064885
 H        -1.991811         1.691134         0.165468
 H        -1.119187         3.419122         0.462160
 H        -1.200805         2.868970        -1.086182
 H         1.763218         0.411421         2.718933
 H         3.014026         2.799063         1.792432
 H         3.454236         1.132694         1.006497
 H         2.608783         2.568371        -1.734357
 H         0.580300        -1.616783         0.575381
 H         0.571560        -0.953995        -1.040398
 H         2.044275        -1.205785        -0.280604
