19
Iteration:   918charge 0 multiplicity 1
 C        -0.925236         2.224539        -0.169577
 C         0.268528         1.831379         0.600604
 O         0.301642         1.942387         2.056742
 C         1.526870         1.004474         1.881341
 C         2.586563         1.941124         1.099533
 C         1.572634         2.029007         0.073653
 O         1.630454         2.472233        -1.240513
 C         1.038689         0.589417         0.478105
 C         0.940215        -0.809550        -0.119322
 H        -1.907132         1.640785         0.074019
 H        -1.277972         3.272054        -0.054869
 H        -0.690822         2.061132        -1.178361
 H         1.829350         0.440677         2.850459
 H         3.018223         2.781571         1.725382
 H         3.408254         1.252718         0.877881
 H         2.445411         2.023032        -1.556636
 H         0.101935        -1.443323         0.203933
 H         0.756458        -0.618891        -1.218469
 H         1.987406        -1.388145         0.070098
