19
Iteration:  2277
 C        -0.987203         2.279778        -0.196941
 C         0.180357         1.874170         0.637673
 O         0.311973         1.820115         2.153036
 C         1.546860         1.090062         1.894003
 C         2.608058         1.962544         1.211104
 C         1.625030         1.945008        -0.009888
 O         1.637399         2.374335        -1.296952
 C         0.989052         0.657571         0.468546
 C         1.023098        -0.739269        -0.182669
 H        -1.856229         1.653546        -0.231291
 H        -1.396304         3.203420         0.277215
 H        -0.767019         2.523757        -1.189437
 H         1.822716         0.598954         2.780288
 H         2.962852         2.744321         1.822952
 H         3.452751         1.288140         0.980974
 H         2.173751         1.774377        -1.873085
 H         0.753908        -1.568612         0.459783
 H         0.425085        -0.895636        -0.990306
 H         2.099588        -0.897742        -0.608066
