19
Iteration:  2033charge 0 multiplicity 1
 C        -1.060411         2.289836        -0.027043
 C         0.201546         1.850280         0.603388
 O         0.318711         2.068670         2.030193
 C         1.528660         1.035096         1.841567
 C         2.558391         1.879078         1.126769
 C         1.633490         1.805156        -0.052197
 O         1.774772         2.533988        -1.256030
 C         0.939971         0.527049         0.475184
 C         1.050739        -0.845631        -0.081393
 H        -1.764966         1.427662         0.095417
 H        -1.471974         3.159539         0.372686
 H        -0.998708         2.423796        -1.204540
 H         1.418082         0.513157         2.900829
 H         2.824517         2.892083         1.516696
 H         3.416357         1.235552         1.027057
 H         2.335599         2.237790        -1.992294
 H         0.384051        -1.531880         0.458919
 H         0.796683        -0.847845        -1.181668
 H         2.027185        -1.261365        -0.031682
