19
Iteration:  3084
 C        -1.160399         2.274578        -0.042685
 C         0.151984         1.710615         0.571780
 O         0.312762         1.918573         2.022104
 C         1.524827         1.072172         1.854530
 C         2.611217         1.975455         1.161782
 C         1.587868         1.961714        -0.069723
 O         1.914617         2.543909        -1.254558
 C         1.107316         0.503987         0.451529
 C         0.836821        -0.824653        -0.093053
 H        -2.053120         1.654947         0.109081
 H        -1.300069         3.236864         0.437416
 H        -1.091063         2.447581        -1.163182
 H         1.780753         0.574840         2.870482
 H         3.003112         2.863495         1.720644
 H         3.526831         1.453312         0.862828
 H         2.842718         2.346517        -1.557769
 H         0.239031        -1.481428         0.610188
 H         0.267344        -0.878479        -1.000905
 H         1.922740        -1.328956        -0.201326
