19
Iteration:  1587
 C        -1.186763         2.148042         0.033249
 C         0.236765         1.889318         0.611281
 O         0.341610         2.036538         1.953748
 C         1.523608         1.111965         1.981986
 C         2.631677         1.950004         1.216278
 C         1.663736         1.898427        -0.041011
 O         1.883587         2.395311        -1.310582
 C         0.992263         0.546817         0.497812
 C         0.832549        -0.762601        -0.253732
 H        -1.887774         1.387194         0.272262
 H        -1.514756         3.095788         0.383009
 H        -1.182744         2.321045        -1.190222
 H         1.735198         0.608656         2.939852
 H         2.924167         2.839306         1.754762
 H         3.472988         1.187761         1.212477
 H         2.620320         2.007421        -1.866802
 H         0.115362        -1.448706         0.264112
 H         0.628723        -0.621880        -1.352634
 H         1.853888        -1.289816        -0.277713
