19
Iteration:  1268
 C        -1.082833         2.406676        -0.032303
 C         0.108814         1.744844         0.632154
 O         0.308147         1.823384         2.093734
 C         1.607445         1.092143         1.833025
 C         2.517270         2.078501         1.206756
 C         1.627114         1.958817        -0.073832
 O         1.876173         2.429912        -1.379351
 C         1.108860         0.532029         0.364745
 C         0.877703        -0.879878        -0.038892
 H        -2.158748         2.106068         0.371583
 H        -1.015921         3.520827         0.001122
 H        -1.178271         2.124776        -1.031326
 H         1.775510         0.428159         2.576725
 H         2.497316         3.043942         1.819520
 H         3.517993         1.706124         1.164372
 H         2.814728         2.076550        -1.367482
 H        -0.023665        -1.401997         0.419045
 H         0.557306        -0.936321        -1.169452
 H         1.787431        -1.548367         0.062142
