19
Iteration:  3080
 C        -1.135633         2.265638        -0.019909
 C         0.138691         1.706414         0.564267
 O         0.289411         1.913910         2.025187
 C         1.551192         1.053827         1.838785
 C         2.622071         1.997351         1.166903
 C         1.581047         1.949755        -0.088552
 O         1.922479         2.542085        -1.252744
 C         1.085341         0.515970         0.420685
 C         0.852709        -0.826502        -0.059000
 H        -2.049205         1.642624         0.060161
 H        -1.200780         3.331618         0.466398
 H        -1.025334         2.441354        -1.125130
 H         1.705231         0.513667         2.799065
 H         2.857434         2.961763         1.652974
 H         3.511051         1.408619         0.835852
 H         2.851433         2.393641        -1.418341
 H         0.263309        -1.431680         0.659259
 H         0.182170        -0.746556        -0.974773
 H         1.862430        -1.387376        -0.214895
