19
Iteration:  2572charge 0 multiplicity 1
 C        -0.960050         2.032803        -0.176941
 C         0.198833         1.881005         0.718025
 O         0.306166         1.938383         2.174225
 C         1.563764         1.032160         1.895502
 C         2.611967         1.921475         1.202825
 C         1.544805         2.044947         0.030496
 O         1.710854         2.486037        -1.336255
 C         1.083291         0.611255         0.475625
 C         0.848945        -0.688946        -0.225978
 H        -1.805850         1.348660         0.092802
 H        -1.202954         3.106350        -0.427895
 H        -0.766498         1.706009        -1.150161
 H         1.762563         0.559899         2.822151
 H         3.183362         2.759896         1.632134
 H         3.418763         1.188359         0.881168
 H         2.543730         2.168117        -1.791772
 H        -0.032073        -1.339807         0.070210
 H         0.819196        -0.644993        -1.332938
 H         1.793548        -1.276114        -0.243688
