19
Iteration:   631charge 0 multiplicity 1
 C        -1.027893         2.162135        -0.212169
 C         0.195713         1.793189         0.625700
 O         0.367825         1.918315         2.058157
 C         1.547415         1.054916         1.947633
 C         2.606334         1.944101         1.287000
 C         1.594019         1.958360         0.010043
 O         1.669237         2.381818        -1.347109
 C         1.116355         0.579954         0.490278
 C         0.878569        -0.619183        -0.152056
 H        -1.834388         1.569222         0.104420
 H        -1.164080         3.221650        -0.207551
 H        -0.757312         1.899999        -1.268437
 H         1.797391         0.661452         2.863617
 H         2.795283         2.944707         1.806866
 H         3.589569         1.403971         1.235622
 H         2.556976         2.160555        -1.603729
 H         0.330944        -1.238374         0.429905
 H         0.199176        -0.305343        -0.998836
 H         1.656213        -1.230630        -0.711207
