19
Iteration:   309
 C        -1.028892         2.436472        -0.027673
 C         0.145113         1.679574         0.587792
 O         0.353072         1.823723         2.058812
 C         1.591267         1.082032         1.850210
 C         2.418378         2.175385         1.220095
 C         1.663435         1.856361        -0.014857
 O         1.809395         2.357010        -1.327593
 C         1.081789         0.536236         0.461451
 C         0.890381        -0.767014        -0.128185
 H        -1.929710         1.830664         0.183985
 H        -0.950642         3.522175         0.163884
 H        -0.893217         2.205162        -1.113576
 H         1.919309         0.510192         2.757193
 H         2.391123         3.280171         1.643052
 H         3.468368         1.786473         0.946744
 H         2.401228         1.726336        -1.761375
 H        -0.000627        -1.095195         0.205101
 H         0.783504        -0.803650        -1.185717
 H         1.765804        -1.476199         0.058354
