19
Iteration:  4337charge 0 multiplicity 1
 C        -1.160584         2.406799         0.024119
 C         0.152000         1.896027         0.609956
 O         0.470427         1.995617         2.077183
 C         1.575533         1.056290         1.934920
 C         2.660925         1.844538         1.146569
 C         1.593728         1.882718         0.072306
 O         1.884303         2.219356        -1.300392
 C         0.943348         0.557405         0.495260
 C         0.855479        -0.696472        -0.376496
 H        -2.035895         1.723281         0.238690
 H        -1.677641         3.332018         0.377165
 H        -0.958428         2.194685        -0.993240
 H         1.687271         0.498514         2.919822
 H         2.950455         2.831915         1.579747
 H         3.492255         1.252348         0.833587
 H         1.257912         2.933572        -1.483536
 H         0.209834        -1.498777        -0.114815
 H         0.786328        -0.525533        -1.406841
 H         1.871875        -1.182836        -0.273482
