19
Iteration:  1822
 C        -1.005777         2.387402        -0.095555
 C         0.216925         1.776145         0.591934
 O         0.317076         1.753788         2.059386
 C         1.541015         1.017437         1.852554
 C         2.554332         2.199362         1.141608
 C         1.620492         1.971234        -0.007843
 O         1.792580         2.286389        -1.353725
 C         1.127560         0.578731         0.501693
 C         0.783916        -0.756513        -0.047275
 H        -1.907425         1.692816        -0.116025
 H        -1.180263         3.369364         0.486469
 H        -0.724261         2.566233        -1.084355
 H         2.000452         0.381718         2.550850
 H         2.434328         2.959822         1.889736
 H         3.544627         1.896689         1.000895
 H         2.696439         2.040673        -1.519770
 H        -0.134519        -1.170387         0.423370
 H         0.610184        -0.644099        -1.226916
 H         1.536431        -1.457968         0.038701
