19
Iteration:  4462
 C        -1.025527         2.305470         0.056293
 C         0.227554         1.805806         0.555399
 O         0.452378         1.979842         1.990230
 C         1.552813         0.992819         1.913931
 C         2.646183         1.822631         1.180959
 C         1.598724         1.890729        -0.021510
 O         1.856059         2.467937        -1.273046
 C         0.989481         0.563784         0.503747
 C         0.731287        -0.711590        -0.211046
 H        -1.870831         1.572157         0.092910
 H        -1.424883         3.311296         0.108324
 H        -0.968869         2.165247        -1.116072
 H         1.618154         0.442939         2.851710
 H         2.970608         2.725034         1.740999
 H         3.551205         1.196531         0.827016
 H         1.191720         3.098761        -1.540488
 H         0.334227        -1.301416         0.539407
 H         0.174504        -0.817858        -1.151267
 H         1.550322        -1.220347        -0.576969
