19
Iteration:  4743
 C        -1.123374         2.313500         0.082542
 C         0.260497         1.930400         0.714914
 O         0.402169         2.025775         2.083126
 C         1.496175         1.122937         1.858714
 C         2.613457         1.818374         1.171229
 C         1.628582         1.911962         0.052198
 O         1.798226         2.287385        -1.272911
 C         1.027476         0.511456         0.453035
 C         0.900714        -0.740563        -0.442017
 H        -1.956576         1.496062         0.239817
 H        -1.423577         3.440372         0.355432
 H        -0.890397         2.122273        -0.979446
 H         1.718527         0.504370         2.730443
 H         3.256582         2.696175         1.480458
 H         3.374057         1.025986         0.862594
 H         1.142973         3.017944        -1.427747
 H         0.085513        -1.333166        -0.015304
 H         0.766424        -0.628241        -1.532468
 H         1.778428        -1.396948        -0.376358
