19
Iteration:  3105
 C        -1.096404         2.196462        -0.030985
 C         0.237640         1.913571         0.550319
 O         0.352640         1.976892         2.005434
 C         1.532965         1.075394         1.903383
 C         2.617312         1.924179         1.243788
 C         1.631196         1.931263        -0.021401
 O         1.799368         2.493171        -1.240675
 C         0.959651         0.540169         0.446042
 C         0.920059        -0.821847        -0.191416
 H        -1.779059         1.352103         0.173821
 H        -1.484724         3.205272         0.277853
 H        -1.024324         2.179985        -1.191260
 H         1.636401         0.478295         2.904016
 H         2.908828         2.930479         1.599450
 H         3.507758         1.286202         1.084053
 H         2.289688         1.868313        -1.790792
 H         0.081418        -1.483100         0.228207
 H         0.510063        -0.607782        -1.169756
 H         1.987189        -1.458155        -0.165221
