19
Iteration:   826charge 0 multiplicity 1
 C        -1.147637         2.198978        -0.003076
 C         0.220525         1.838155         0.610965
 O         0.282617         1.872055         2.035590
 C         1.546071         1.061975         1.840553
 C         2.554937         2.050128         1.141060
 C         1.608320         1.939329        -0.025355
 O         1.916409         2.346229        -1.266861
 C         1.051962         0.609351         0.469100
 C         0.925407        -0.680805        -0.166425
 H        -1.967329         1.582429         0.399180
 H        -1.416957         3.274802         0.214856
 H        -0.986499         1.856427        -1.083521
 H         1.741540         0.509201         2.691333
 H         2.509099         3.019281         1.560867
 H         3.552934         1.578122         1.094877
 H         2.712124         1.948159        -1.569050
 H         0.355005        -1.454553         0.383329
 H         0.085416        -0.514068        -0.959587
 H         1.811992        -1.124952        -0.452810
