19
Iteration:  4351
 C        -1.144859         2.346620        -0.026088
 C         0.213616         1.856676         0.705586
 O         0.411887         2.019391         2.115507
 C         1.541645         0.998559         1.882667
 C         2.628929         1.904674         1.123704
 C         1.611628         1.934436        -0.027508
 O         1.878044         2.237184        -1.303448
 C         0.944671         0.514837         0.565207
 C         0.874986        -0.752755        -0.350569
 H        -2.001891         1.713790         0.495109
 H        -1.111012         3.409992         0.310819
 H        -1.267342         2.503382        -1.143960
 H         1.790369         0.393791         2.696249
 H         3.040234         2.844198         1.611596
 H         3.514740         1.271679         0.811333
 H         1.658114         3.175180        -1.581116
 H        -0.026546        -1.249937        -0.093231
 H         0.646188        -0.180395        -1.255493
 H         1.771664        -1.263880        -0.333243
