19
Iteration:  3678
 C        -1.048695         2.344699         0.014097
 C         0.201910         1.827241         0.625000
 O         0.261545         1.900829         2.046891
 C         1.502523         1.050378         1.842727
 C         2.556396         1.918525         1.070807
 C         1.599505         1.963407        -0.024716
 O         1.839197         2.541190        -1.305919
 C         0.990604         0.522833         0.424133
 C         0.982783        -0.869888        -0.073614
 H        -1.855185         1.612718         0.097922
 H        -1.344172         3.323127         0.596601
 H        -0.781197         2.461203        -1.020722
 H         1.709026         0.333628         2.683494
 H         2.896096         2.839014         1.552750
 H         3.433533         1.337058         0.784305
 H         2.727180         2.125772        -1.491430
 H         0.344009        -1.517423         0.675693
 H         0.572476        -0.921614        -1.136191
 H         1.952491        -1.372924        -0.160732
