19
Iteration:  4862
 C        -1.098610         2.309418        -0.025363
 C         0.212922         1.872326         0.645653
 O         0.401874         1.816430         2.121113
 C         1.639316         1.042329         1.769096
 C         2.654994         1.941024         1.145004
 C         1.631684         1.879617        -0.010786
 O         1.839251         2.380005        -1.255879
 C         0.962790         0.614927         0.461947
 C         0.741061        -0.698061        -0.188230
 H        -1.881697         1.565894         0.171495
 H        -1.243930         3.357469         0.159963
 H        -1.045379         2.215863        -1.086463
 H         1.936396         0.338465         2.578172
 H         2.946041         2.841903         1.733337
 H         3.538623         1.441515         0.712243
 H         1.505789         3.267900        -1.372175
 H         0.157267        -1.550037         0.402495
 H         0.305362        -0.699616        -1.244133
 H         1.694422        -1.096012        -0.479141
