19
Iteration:   404
 C        -1.085100         2.147979         0.024030
 C         0.169054         1.854126         0.559570
 O         0.309510         2.005847         1.996798
 C         1.469387         1.082066         1.903171
 C         2.590754         1.921068         1.112735
 C         1.541856         1.883081        -0.080384
 O         1.972009         2.511797        -1.252219
 C         1.024203         0.548846         0.527658
 C         0.915289        -0.738298        -0.122239
 H        -1.725618         1.378088         0.415362
 H        -1.494853         3.130695         0.107689
 H        -1.037384         1.832225        -1.051526
 H         1.769091         0.438293         2.769393
 H         2.760924         2.806564         1.579207
 H         3.422725         1.368967         0.790751
 H         2.720735         1.982261        -1.677723
 H         0.267455        -1.451569         0.565278
 H         0.190242        -0.644063        -0.933184
 H         1.813012        -1.126281        -0.590226
