19
Iteration:  3166charge 0 multiplicity 1
 C        -1.045381         2.336380        -0.038784
 C         0.201570         1.744847         0.643306
 O         0.259153         1.872988         2.071067
 C         1.564246         1.096904         1.934583
 C         2.573107         2.128141         1.168936
 C         1.599261         1.901857         0.046142
 O         1.791160         2.191576        -1.244650
 C         1.073615         0.596502         0.472954
 C         0.906189        -0.677304        -0.342147
 H        -1.938856         2.008342         0.435055
 H        -0.901965         3.436259        -0.046198
 H        -1.092743         2.067274        -1.084476
 H         2.005204         0.571798         2.826322
 H         2.604535         3.229257         1.434611
 H         3.510538         1.476887         1.083008
 H         2.637985         1.941007        -1.661771
 H         0.017845        -1.188044        -0.012037
 H         0.913689        -0.333483        -1.428550
 H         1.654868        -1.407783        -0.398697
