19
Iteration:  3198
 C        -1.092140         2.393003         0.002721
 C         0.160015         1.899380         0.565843
 O         0.291643         1.940121         1.993485
 C         1.551256         0.966859         1.916696
 C         2.552620         2.058970         1.275060
 C         1.634617         1.903105        -0.004288
 O         1.827809         2.382065        -1.349751
 C         1.068448         0.494065         0.468290
 C         0.936320        -0.877756        -0.201134
 H        -1.889833         2.008516         0.585324
 H        -1.069977         3.463144         0.150979
 H        -1.285238         2.132371        -0.988690
 H         1.960760         0.429112         2.791179
 H         2.420818         3.082326         1.748685
 H         3.637290         1.719755         1.145435
 H         2.663788         2.058729        -1.763519
 H         0.204321        -1.575769         0.239403
 H         0.433308        -0.680457        -1.249943
 H         1.970883        -1.473417        -0.258559
