19
Iteration:  1290charge 0 multiplicity 1
 C        -1.050154         2.331983         0.002927
 C         0.188032         1.847826         0.533559
 O         0.312322         1.823218         1.981511
 C         1.516597         0.992955         1.829612
 C         2.504898         2.057837         1.072209
 C         1.621942         1.947473        -0.045159
 O         1.911881         2.460646        -1.241233
 C         0.988978         0.560881         0.451282
 C         0.905275        -0.828606        -0.010350
 H        -1.834693         1.959983         0.798696
 H        -1.103332         3.451130         0.008201
 H        -1.428058         2.012382        -0.898633
 H         1.776239         0.504573         2.700179
 H         2.700893         3.060279         1.566274
 H         3.442626         1.605590         0.786230
 H         2.777461         2.109487        -1.443724
 H         0.167094        -1.456707         0.600496
 H         0.587352        -1.032549        -1.119112
 H         1.913257        -1.308153         0.122632
