19
Iteration:  2581
 C        -0.974192         2.041947        -0.168221
 C         0.184296         1.835176         0.741736
 O         0.312762         1.928547         2.148114
 C         1.560341         1.065457         1.840476
 C         2.617776         1.961793         1.190720
 C         1.559415         1.995567         0.038833
 O         1.744754         2.525945        -1.323812
 C         1.080855         0.624734         0.407505
 C         0.875504        -0.746081        -0.183191
 H        -1.897664         1.596507         0.222445
 H        -1.243890         3.178333        -0.229762
 H        -0.643104         1.634273        -1.092555
 H         1.677829         0.490091         2.653455
 H         2.960133         2.786845         1.697594
 H         3.341603         1.247093         0.879417
 H         2.472466         1.875363        -1.486408
 H        -0.072186        -1.255694         0.176170
 H         0.620807        -0.449637        -1.307924
 H         1.706759        -1.335576        -0.127448
