19
Iteration:  4521
 C        -1.098346         2.394854         0.104662
 C         0.147901         1.786961         0.627578
 O         0.383257         1.885239         2.148096
 C         1.577522         1.048961         1.852586
 C         2.545169         1.999495         1.192535
 C         1.634400         2.000285        -0.019328
 O         1.880785         2.169334        -1.344403
 C         1.065615         0.570863         0.425049
 C         0.811325        -0.714251        -0.372159
 H        -1.947453         1.924281         0.592318
 H        -1.104207         3.508992         0.235515
 H        -0.939017         2.151623        -0.943976
 H         1.970069         0.580036         2.801958
 H         2.831235         2.901278         1.781151
 H         3.399555         1.386073         0.952813
 H         2.216697         3.096617        -1.473584
 H        -0.111269        -1.207900         0.089243
 H         0.379652        -0.508090        -1.326952
 H         1.575651        -1.394247        -0.317893
