19
Iteration:  1031
 C        -1.045738         2.191037        -0.021964
 C         0.239320         1.808703         0.565554
 O         0.299090         1.928043         1.982445
 C         1.552776         1.100925         1.878764
 C         2.585652         1.994654         1.135085
 C         1.599561         1.985927         0.009040
 O         1.856525         2.419088        -1.232595
 C         0.920478         0.516075         0.542744
 C         0.887848        -0.715942        -0.206014
 H        -1.717275         1.609783         0.463820
 H        -1.344010         3.214557         0.101543
 H        -0.955275         1.925413        -1.127572
 H         1.797444         0.448836         2.676559
 H         2.698732         2.857492         1.816848
 H         3.606273         1.693739         0.915087
 H         2.455753         1.804483        -1.636105
 H         0.245912        -1.407131         0.354484
 H         0.594292        -0.610773        -1.162842
 H         1.939154        -1.289427        -0.256284
