19
Iteration:  4300charge 0 multiplicity 1
 C        -1.099784         2.444019         0.115356
 C         0.236218         1.861752         0.595642
 O         0.342920         1.891788         2.073588
 C         1.503097         0.993695         1.942458
 C         2.646600         1.927121         1.206256
 C         1.640692         1.976807        -0.056909
 O         1.869572         2.230399        -1.405740
 C         0.989731         0.577401         0.494330
 C         0.854760        -0.773653        -0.268256
 H        -1.664496         1.639128         0.305970
 H        -1.234586         3.482222         0.290674
 H        -1.072386         2.517009        -0.985689
 H         1.708405         0.388189         2.839102
 H         3.020848         2.765667         1.751990
 H         3.512342         1.448504         0.705165
 H         1.460792         3.126967        -1.589628
 H         0.037013        -1.397746         0.302754
 H         0.389471        -0.414336        -1.286331
 H         1.886394        -1.236630        -0.384274
