19
Iteration:  4527charge 0 multiplicity 1
 C        -1.087670         2.410794         0.089366
 C         0.189375         1.810595         0.659140
 O         0.348927         1.891869         2.164702
 C         1.564950         1.071502         1.866525
 C         2.591258         2.040761         1.182123
 C         1.597730         1.982291        -0.003934
 O         1.872280         2.164297        -1.335680
 C         1.083276         0.534492         0.397465
 C         0.775589        -0.752440        -0.391454
 H        -1.980725         2.010479         0.613625
 H        -1.103198         3.462951         0.371035
 H        -1.160786         2.101813        -1.031440
 H         1.851059         0.289118         2.601033
 H         2.832447         2.945184         1.763219
 H         3.605845         1.531533         1.008206
 H         2.289532         3.012930        -1.584061
 H        -0.022329        -1.150645         0.183752
 H         0.556888        -0.431402        -1.477361
 H         1.713650        -1.487606        -0.320158
