19
Iteration:  4748charge 0 multiplicity 1
 C        -1.126850         2.348867         0.053566
 C         0.180685         1.961627         0.707981
 O         0.405805         2.009039         2.078274
 C         1.539913         1.085612         1.855567
 C         2.651881         1.824234         1.153585
 C         1.628287         1.874332        -0.012370
 O         1.779831         2.280300        -1.214939
 C         1.002468         0.528974         0.474291
 C         0.935638        -0.727822        -0.418699
 H        -1.712296         1.540874         0.350738
 H        -1.310907         3.331340         0.262195
 H        -1.101633         2.241699        -1.071799
 H         1.691310         0.349097         2.675532
 H         3.127364         2.708145         1.541940
 H         3.353159         1.059273         0.875813
 H         1.187315         2.990151        -1.476975
 H         0.112284        -1.326828         0.014052
 H         0.738636        -0.488670        -1.473803
 H         1.899787        -1.412899        -0.289560
