19
Iteration:  3388
 C        -1.114666         2.250413         0.003402
 C         0.166589         1.843389         0.572946
 O         0.326872         1.972265         1.964863
 C         1.484077         1.048322         1.937362
 C         2.606123         1.835316         1.176315
 C         1.663182         1.901054        -0.014806
 O         1.791484         2.417180        -1.276076
 C         1.009053         0.613662         0.498391
 C         1.004370        -0.671008        -0.227376
 H        -1.781203         1.809252         0.664522
 H        -1.260463         3.283405         0.278979
 H        -1.473383         1.945456        -0.957854
 H         1.712077         0.645039         2.897900
 H         3.045578         2.780462         1.612942
 H         3.365067         1.012843         1.097127
 H         2.471065         1.893048        -1.766991
 H         0.265616        -1.451501         0.236437
 H         0.528841        -0.568965        -1.236336
 H         2.099868        -1.056016        -0.224583
