19
Iteration:  2182charge 0 multiplicity 1
 C        -1.162281         2.135146        -0.001982
 C         0.151773         1.858208         0.623235
 O         0.387803         1.900430         1.942042
 C         1.514838         1.024376         1.806895
 C         2.604494         1.888018         1.226913
 C         1.622918         2.037475         0.035861
 O         1.855582         2.461381        -1.300402
 C         1.033506         0.647307         0.437317
 C         0.943221        -0.701663        -0.085708
 H        -2.043893         1.753489         0.651677
 H        -1.317583         3.259212        -0.085262
 H        -1.311700         1.755951        -0.954849
 H         1.632217         0.279374         2.648375
 H         2.782089         2.802056         1.851308
 H         3.542654         1.515576         0.792264
 H         2.158268         1.780965        -1.957110
 H         0.015073        -1.232933         0.158574
 H         0.993530        -0.783545        -1.208593
 H         1.851628        -1.205420         0.306652
