19
Iteration:   536charge 0 multiplicity 1
 C        -1.156064         2.283271        -0.050170
 C         0.164377         1.879536         0.606468
 O         0.298617         1.924887         2.054735
 C         1.435560         1.088102         1.844049
 C         2.613590         1.889079         1.222071
 C         1.690958         1.917095        -0.010476
 O         1.810763         2.455363        -1.373897
 C         1.027630         0.607018         0.440556
 C         1.041788        -0.806793        -0.093603
 H        -1.758954         1.462879         0.372375
 H        -1.353990         3.248104         0.407752
 H        -1.240899         2.373488        -1.154704
 H         1.616948         0.336864         2.741228
 H         2.934843         2.818533         1.629730
 H         3.459330         1.277198         1.044051
 H         2.653472         2.138747        -1.794714
 H         0.022553        -1.323788         0.389365
 H         0.894793        -0.915401        -1.172602
 H         1.898050        -1.408513         0.114969
