19
Iteration:  1818charge 0 multiplicity 1
 C        -1.055905         2.373561        -0.092444
 C         0.193600         1.748938         0.578970
 O         0.324843         1.751023         2.068997
 C         1.597994         1.034374         1.857520
 C         2.538356         2.227552         1.191838
 C         1.656986         1.938500        -0.018271
 O         1.797286         2.263942        -1.339818
 C         1.087122         0.620074         0.477930
 C         0.776733        -0.738342        -0.072838
 H        -1.926785         1.808391        -0.101242
 H        -1.101950         3.319630         0.470824
 H        -0.715302         2.619305        -1.260387
 H         2.043967         0.285272         2.572407
 H         2.484929         3.070048         1.926828
 H         3.635315         1.807957         0.934415
 H         2.720636         1.948664        -1.561752
 H        -0.181942        -1.029816         0.398412
 H         0.597750        -0.677969        -1.142100
 H         1.640670        -1.484116         0.003946
