19
Iteration:   672
 C        -1.078578         2.196724        -0.059481
 C         0.160142         1.805268         0.587382
 O         0.353424         1.965495         1.956436
 C         1.559484         1.095912         1.879457
 C         2.544790         1.974914         1.133483
 C         1.583215         1.844534         0.000418
 O         1.823432         2.529149        -1.186513
 C         1.037021         0.564706         0.486612
 C         0.949074        -0.794795        -0.127166
 H        -1.965488         1.763108         0.345796
 H        -1.199651         3.306370        -0.033356
 H        -1.084853         1.972613        -1.148644
 H         1.723772         0.408797         2.643647
 H         2.816658         2.909763         1.508650
 H         3.399243         1.384308         0.839177
 H         2.538217         2.028080        -1.647411
 H         0.110445        -1.362972         0.471252
 H         0.642514        -0.730632        -1.206343
 H         1.821248        -1.460889         0.084007
