19
Iteration:   381
 C        -1.168836         2.112232        -0.137725
 C         0.140941         1.858226         0.590714
 O         0.400570         2.015270         2.040710
 C         1.513688         1.066678         1.868439
 C         2.678561         1.953684         1.233951
 C         1.690538         1.983790         0.016360
 O         1.810872         2.417887        -1.259899
 C         0.981421         0.639318         0.453931
 C         0.872691        -0.782964        -0.158595
 H        -1.863467         1.401502         0.189239
 H        -1.412812         3.106078         0.191025
 H        -1.147782         2.038365        -1.241239
 H         1.785766         0.395862         2.652370
 H         3.084345         2.696691         1.737075
 H         3.279892         1.139949         1.142131
 H         2.626689         2.245790        -1.710667
 H         0.194712        -1.479070         0.573422
 H         0.394575        -0.987060        -1.157518
 H         1.861032        -1.075920        -0.291181
