19
Iteration:   865charge 0 multiplicity 1
 C        -1.044391         2.247198         0.050843
 C         0.188691         1.843436         0.584141
 O         0.291385         1.881426         1.966139
 C         1.530097         1.063909         1.823398
 C         2.496420         2.120216         1.200087
 C         1.577761         1.914150        -0.004362
 O         1.866814         2.462602        -1.277812
 C         1.154701         0.522605         0.397714
 C         0.887758        -0.871480        -0.158759
 H        -1.814020         1.855371         0.676779
 H        -1.071838         3.331661         0.047946
 H        -1.221978         2.064510        -0.945594
 H         1.758443         0.505996         2.815296
 H         2.597551         3.111156         1.760053
 H         3.512252         1.735278         1.073596
 H         2.605273         1.799108        -1.431005
 H         0.075305        -1.022894         0.538767
 H         0.604848        -0.788314        -1.143655
 H         1.624749        -1.802991        -0.149162
