19
Iteration:  2323
 C        -1.202375         2.112647         0.066176
 C         0.174031         1.795416         0.495713
 O         0.371349         1.947473         2.040705
 C         1.460825         1.139689         1.844818
 C         2.573933         1.990005         1.162198
 C         1.695703         1.903618        -0.005112
 O         2.003791         2.579467        -1.232212
 C         1.032310         0.545407         0.469614
 C         0.851118        -0.806913        -0.205748
 H        -1.944157         1.307547         0.448040
 H        -1.619072         3.105107         0.381516
 H        -1.288983         2.060080        -0.997514
 H         1.906081         0.538235         2.749404
 H         2.561900         3.026033         1.456656
 H         3.555291         1.555980         1.102904
 H         1.985685         1.792442        -1.843001
 H         0.155172        -1.464353         0.307715
 H         0.478866        -0.775920        -1.187176
 H         1.884909        -1.351110        -0.303577
