19
Iteration:  4390
 C        -1.072578         2.406139         0.015308
 C         0.247920         1.892765         0.574483
 O         0.338281         1.803775         2.144624
 C         1.577074         1.000330         1.808406
 C         2.641059         2.042623         1.201511
 C         1.712864         1.924925         0.043535
 O         1.810712         2.276060        -1.372396
 C         1.030082         0.628695         0.397977
 C         0.737204        -0.788010        -0.194326
 H        -1.821097         1.822808         0.536917
 H        -1.077930         3.533010         0.088930
 H        -1.181337         2.143978        -1.008866
 H         1.920933         0.389726         2.721542
 H         2.766757         2.962595         1.760296
 H         3.536844         1.495325         1.029355
 H         2.008586         3.227339        -1.401933
 H        -0.155892        -1.287484         0.318651
 H         0.390761        -0.783966        -1.239810
 H         1.444970        -1.707557        -0.343696
