19
Iteration:  4907
 C        -1.041872         2.107635         0.072688
 C         0.266452         1.880136         0.647936
 O         0.408175         2.026492         2.055453
 C         1.621258         1.039369         1.842715
 C         2.642746         1.902330         1.166325
 C         1.683818         1.895878         0.029103
 O         1.828171         2.396737        -1.197360
 C         1.000219         0.600470         0.365461
 C         0.657481        -0.713501        -0.389038
 H        -1.722484         1.281654         0.320862
 H        -1.523575         3.016465         0.412013
 H        -1.129053         2.065272        -0.995985
 H         1.917241         0.467441         2.770475
 H         2.942723         2.903114         1.512523
 H         3.544697         1.255311         1.170255
 H         1.357882         3.229356        -1.263421
 H        -0.230923        -1.028620         0.351161
 H         0.316688        -0.752174        -1.483006
 H         1.491432        -1.384216        -0.365374
