19
Iteration:  2448
 C        -1.044007         2.318911        -0.014356
 C         0.190448         1.794562         0.548907
 O         0.311423         1.897544         2.033868
 C         1.463884         1.078548         1.893803
 C         2.554462         1.965693         1.123806
 C         1.611462         1.881593        -0.041361
 O         1.776618         2.535771        -1.221927
 C         1.050350         0.528543         0.496371
 C         1.040461        -0.825708        -0.156665
 H        -1.943447         1.736151         0.190061
 H        -1.313607         3.330634         0.395233
 H        -0.959389         2.406171        -1.169158
 H         1.536958         0.317689         2.654363
 H         2.619061         2.946081         1.582458
 H         3.518630         1.494261         1.004743
 H         2.219643         2.075341        -1.970935
 H         0.690617        -1.565144         0.591087
 H         0.514499        -1.016786        -1.174115
 H         1.995392        -1.186282        -0.315741
