19
Iteration:   683charge 0 multiplicity 1
 C        -1.196746         2.287366        -0.056036
 C         0.186737         1.710545         0.525213
 O         0.344678         1.932649         1.984714
 C         1.545377         1.072749         1.894480
 C         2.561983         2.005397         1.199334
 C         1.602681         1.942446        -0.063193
 O         1.867861         2.538590        -1.261735
 C         1.095868         0.492210         0.495870
 C         0.900976        -0.831039        -0.063328
 H        -1.957423         1.820120         0.496816
 H        -1.168864         3.374554         0.180350
 H        -1.216108         2.054601        -1.150005
 H         1.735057         0.604132         2.832362
 H         2.870274         2.868044         1.676273
 H         3.427115         1.452920         0.892853
 H         2.505638         2.155670        -1.842276
 H        -0.036865        -1.462482         0.318445
 H         0.879221        -0.838593        -1.200856
 H         1.892052        -1.348461         0.020990
