19
Iteration:  1715
 C        -1.011952         2.242011        -0.028790
 C         0.209680         1.843428         0.624884
 O         0.369624         1.925660         1.982155
 C         1.483274         1.020267         1.879289
 C         2.516902         1.976667         1.193159
 C         1.572435         1.927936        -0.022434
 O         1.840196         2.369029        -1.335965
 C         0.983594         0.560025         0.531781
 C         0.881833        -0.706217        -0.128716
 H        -1.999064         2.040482         0.585505
 H        -1.026532         3.317254        -0.160880
 H        -0.987679         1.854015        -1.004410
 H         1.803686         0.523180         2.749063
 H         2.966859         2.985467         1.376325
 H         3.383241         1.364038         0.884359
 H         2.753974         2.388109        -1.583253
 H         0.529068        -1.483454         0.544045
 H         0.298493        -0.689130        -0.972400
 H         1.979378        -1.014876        -0.366678
