19
Iteration:  1080charge 0 multiplicity 1
 C        -0.900954         2.202432        -0.194926
 C         0.272465         1.856805         0.640920
 O         0.311146         1.896130         2.001113
 C         1.554809         1.064559         1.863209
 C         2.592449         1.987980         1.169072
 C         1.633680         1.947759         0.033860
 O         1.609197         2.488371        -1.243314
 C         1.012162         0.541876         0.529827
 C         0.844321        -0.794676        -0.114203
 H        -1.856163         1.812600         0.361486
 H        -1.007318         3.306322        -0.063667
 H        -0.739681         1.911101        -1.199291
 H         1.676048         0.444859         2.794674
 H         3.033670         2.902029         1.614471
 H         3.495265         1.352926         0.943237
 H         2.560484         2.380998        -1.552352
 H         0.026425        -1.502459         0.240027
 H         0.844721        -0.653208        -1.362761
 H         1.816274        -1.411915        -0.048991
