19
Iteration:  4015
 C        -0.999073         2.395121        -0.040432
 C         0.213597         1.870444         0.614908
 O         0.341657         1.781258         2.067903
 C         1.605193         0.989544         1.805935
 C         2.614110         1.994672         1.181908
 C         1.604700         1.881735        -0.048139
 O         1.831959         2.520141        -1.210933
 C         1.105490         0.609322         0.448805
 C         0.708165        -0.855695        -0.156071
 H        -1.798506         1.906916         0.445414
 H        -1.292072         3.512742        -0.213695
 H        -1.112994         2.072314        -1.116805
 H         1.905923         0.527219         2.735193
 H         2.717142         2.953220         1.736745
 H         3.647713         1.635499         0.932177
 H         1.811241         1.898401        -1.989211
 H         0.066703        -1.453894         0.470700
 H         0.145077        -0.693858        -1.062512
 H         1.607026        -1.430510        -0.345338
