19
Iteration:  2507
 C        -1.120228         2.314122         0.108980
 C         0.193937         1.782306         0.575944
 O         0.243845         1.757856         2.036830
 C         1.552581         1.114116         1.876486
 C         2.480132         2.151306         1.218992
 C         1.631018         1.932332        -0.074075
 O         1.934791         2.391933        -1.329623
 C         1.102401         0.569474         0.478530
 C         0.909649        -0.787871        -0.244807
 H        -1.964113         1.647642         0.407832
 H        -1.199315         3.335205         0.536433
 H        -1.006600         2.379362        -0.920186
 H         1.928132         0.463609         2.673254
 H         2.500968         3.180539         1.704292
 H         3.509445         1.667165         1.068206
 H         2.352070         1.728118        -1.927136
 H         0.196267        -1.427239         0.292505
 H         0.543127        -0.738677        -1.236973
 H         1.981288        -1.172827        -0.214768
