19
Iteration:  2769charge 0 multiplicity 1
 C        -1.203792         2.195662         0.015180
 C         0.229279         1.768307         0.597130
 O         0.287105         1.764911         2.068266
 C         1.586321         1.107818         1.867839
 C         2.508369         2.112716         1.304601
 C         1.721226         1.934775        -0.069699
 O         1.954492         2.373340        -1.319113
 C         1.073558         0.634780         0.381106
 C         0.830225        -0.662171        -0.190681
 H        -2.084421         1.763101         0.612831
 H        -1.462836         3.258337         0.102037
 H        -1.294774         1.804872        -1.062947
 H         1.788837         0.317218         2.716105
 H         2.460304         3.123988         1.587940
 H         3.525391         1.730810         1.191264
 H         2.839893         2.261122        -1.667680
 H        -0.068600        -1.225556         0.219653
 H         0.547332        -0.621917        -1.371551
 H         1.642035        -1.357795        -0.198042
