19
Iteration:   201charge 0 multiplicity 1
 C        -1.037623         2.217942        -0.109073
 C         0.193635         1.792649         0.572669
 O         0.310331         1.858268         2.015289
 C         1.596976         1.096684         1.847214
 C         2.638929         2.096847         1.282305
 C         1.674100         1.946676         0.036672
 O         1.725509         2.355036        -1.345610
 C         1.120261         0.556508         0.513971
 C         0.795741        -0.706428        -0.127188
 H        -1.941869         1.678814         0.240227
 H        -1.174906         3.321035        -0.122011
 H        -1.047146         2.081033        -1.225359
 H         1.613727         0.453516         2.722596
 H         2.707470         3.038281         1.782228
 H         3.555598         1.580559         1.083328
 H         2.585154         1.963734        -1.643328
 H         0.212239        -1.417519         0.648725
 H         0.165433        -0.381749        -0.954952
 H         1.661383        -1.370403        -0.464134
