19
Iteration:  2290
 C        -1.067917         2.215237        -0.142242
 C         0.146744         1.814888         0.639489
 O         0.335987         1.891162         2.113538
 C         1.478965         1.008525         1.844505
 C         2.623728         1.890102         1.137632
 C         1.575483         2.031472         0.060722
 O         1.777161         2.440275        -1.303751
 C         1.019829         0.645438         0.459932
 C         1.018891        -0.662134        -0.117132
 H        -1.773953         1.306034        -0.179691
 H        -1.501833         3.219778         0.158276
 H        -0.622559         2.362805        -1.089137
 H         1.754968         0.205762         2.645772
 H         2.969658         2.824555         1.541084
 H         3.445503         1.259888         0.827497
 H         1.891910         1.595329        -1.782132
 H         0.713122        -1.359454         0.665646
 H         0.344971        -0.682313        -0.921295
 H         2.108097        -0.976853        -0.429939
