19
Iteration:  4723
 C        -1.084653         2.251536         0.029236
 C         0.214423         1.793863         0.668061
 O         0.408808         1.971367         2.065538
 C         1.565720         1.038988         1.972194
 C         2.636433         1.871519         1.207611
 C         1.640656         1.920034        -0.060543
 O         1.848097         2.320216        -1.353572
 C         0.959079         0.579648         0.477756
 C         0.782006        -0.639496        -0.341231
 H        -1.756478         1.477963         0.452201
 H        -1.122957         3.258589         0.551327
 H        -1.225051         2.235052        -1.068812
 H         1.723195         0.399735         2.890502
 H         2.931012         2.811906         1.705225
 H         3.601696         1.331808         0.944918
 H         1.444992         3.199102        -1.555410
 H        -0.034444        -1.235925        -0.060542
 H         0.692836        -0.287762        -1.397259
 H         1.770983        -1.283806        -0.309578
