19
Iteration:  1097charge 0 multiplicity 1
 C        -1.019997         2.318405        -0.155425
 C         0.171874         1.747778         0.525741
 O         0.350926         1.833384         2.103239
 C         1.547601         1.001162         1.880654
 C         2.564647         2.041868         1.162787
 C         1.618654         1.899703         0.002304
 O         1.738540         2.477812        -1.266379
 C         1.090693         0.572753         0.468067
 C         0.855912        -0.741839        -0.067474
 H        -1.856586         1.848325         0.252402
 H        -1.068096         3.406519        -0.199702
 H        -0.864784         1.989844        -1.245999
 H         1.906145         0.448429         2.755065
 H         2.592865         3.049853         1.596111
 H         3.589350         1.691667         0.941128
 H         2.601683         2.161212        -1.669490
 H         0.017868        -1.159275         0.442068
 H         0.709919        -0.640815        -1.059570
 H         1.676306        -1.483261        -0.016213
