19
Iteration:  1389
 C        -1.023666         2.299562        -0.051217
 C         0.204798         1.776624         0.573589
 O         0.275350         1.910433         2.032154
 C         1.642478         1.049960         1.919516
 C         2.548152         2.160380         1.252102
 C         1.665219         1.930626         0.032275
 O         1.777300         2.221930        -1.330842
 C         1.155647         0.553841         0.510888
 C         0.758210        -0.704527        -0.223159
 H        -1.985598         1.651798        -0.024072
 H        -1.372767         3.250441         0.301758
 H        -0.812880         2.317041        -1.140326
 H         2.006153         0.516162         2.745982
 H         2.571890         3.172246         1.697578
 H         3.550310         1.717425         1.147524
 H         2.589657         1.792541        -1.647656
 H        -0.092708        -1.340045         0.118658
 H         0.391936        -0.292586        -1.182658
 H         1.595807        -1.334468        -0.420870
