19
Iteration:  1379
 C        -1.045579         2.271938        -0.170992
 C         0.206582         1.795850         0.661941
 O         0.387293         1.869606         2.131742
 C         1.608008         1.167541         1.916298
 C         2.504684         2.125798         1.264960
 C         1.595503         1.913165         0.005255
 O         1.793473         2.231065        -1.362147
 C         1.114709         0.530708         0.511142
 C         0.798346        -0.697488        -0.269683
 H        -1.912597         1.601755         0.024781
 H        -1.285360         3.268456         0.124949
 H        -0.828610         2.390448        -1.284650
 H         1.855568         0.706435         2.872745
 H         2.735902         2.946127         1.925466
 H         3.416635         1.536050         1.099277
 H         2.605395         1.825264        -1.648429
 H        -0.033489        -1.176816         0.327965
 H         0.336397        -0.249538        -1.247214
 H         1.527209        -1.383671        -0.549965
