19
Iteration:   296
 C        -1.016343         2.331594        -0.033452
 C         0.223961         1.863062         0.583407
 O         0.304949         1.828472         2.062193
 C         1.513999         1.061769         1.868813
 C         2.517418         2.087345         1.189545
 C         1.560194         1.951829        -0.054947
 O         1.803668         2.339874        -1.352011
 C         1.090292         0.561145         0.468458
 C         0.922429        -0.824934        -0.113165
 H        -1.892878         1.981454         0.477967
 H        -0.988216         3.383918         0.296257
 H        -1.110494         2.419907        -1.141822
 H         1.785329         0.408257         2.660645
 H         2.428538         3.080200         1.787412
 H         3.613620         1.782365         1.158781
 H         2.527492         1.770638        -1.727124
 H         0.192021        -1.415028         0.254336
 H         0.834142        -0.694436        -1.159710
 H         1.818871        -1.424920         0.103516
