19
Iteration:   377charge 0 multiplicity 1
 C        -1.110398         2.134126        -0.131717
 C         0.131168         1.815600         0.566430
 O         0.393054         2.018293         2.048960
 C         1.497753         1.065887         1.849652
 C         2.693680         1.964385         1.263599
 C         1.671691         1.964960         0.011877
 O         1.769965         2.394791        -1.254278
 C         0.995431         0.650220         0.455057
 C         0.864603        -0.777331        -0.144775
 H        -1.906735         1.354637         0.121872
 H        -1.495369         3.187853         0.103574
 H        -1.174665         2.095834        -1.201366
 H         1.867247         0.293667         2.540492
 H         3.183595         2.847314         1.896263
 H         3.526867         1.163175         1.083255
 H         2.631655         2.272959        -1.751995
 H         0.178886        -1.242047         0.468770
 H         0.420925        -0.924790        -1.159148
 H         1.923036        -1.091477        -0.273535
