19
Iteration:  2868charge 0 multiplicity 1
 C        -0.978320         2.326144        -0.110309
 C         0.165577         1.739011         0.575391
 O         0.289235         1.854212         2.062627
 C         1.534997         0.996759         1.875749
 C         2.569403         1.981010         1.264955
 C         1.633846         1.921370         0.007693
 O         1.691832         2.524073        -1.338205
 C         1.152626         0.589313         0.464530
 C         0.928113        -0.732482        -0.089190
 H        -1.880898         1.647053        -0.140138
 H        -1.116920         3.364001         0.142979
 H        -0.679190         2.382930        -1.235244
 H         1.860153         0.303067         2.704829
 H         2.679145         2.944178         1.768525
 H         3.465334         1.364339         1.006222
 H         2.194509         1.857337        -1.811779
 H         0.355727        -1.530942         0.478504
 H         0.274666        -0.528986        -1.082981
 H         1.765340        -1.332523        -0.301873
