19
Iteration:  3936
 C        -1.084303         2.162024         0.075738
 C         0.155619         1.897203         0.648997
 O         0.383132         1.975155         2.093568
 C         1.530047         1.062684         1.912723
 C         2.612045         1.883356         1.263221
 C         1.628790         1.977493        -0.041247
 O         1.879518         2.335422        -1.433665
 C         1.003981         0.608669         0.478785
 C         0.814302        -0.740485        -0.329505
 H        -1.947526         1.536716         0.327290
 H        -1.402688         3.200270         0.270305
 H        -1.021764         2.005089        -0.957834
 H         1.843830         0.355950         2.730172
 H         2.874128         2.831743         1.723200
 H         3.452187         1.283401         1.048717
 H         2.442435         3.137932        -1.228293
 H         0.064452        -1.312085         0.141908
 H         0.612188        -0.525959        -1.363380
 H         1.651081        -1.323176        -0.375961
