19
Iteration:  2754
 C        -1.090264         2.161382        -0.018407
 C         0.152684         1.842666         0.609225
 O         0.313226         1.799364         2.096754
 C         1.514750         0.994799         1.834299
 C         2.502673         2.121346         1.210654
 C         1.614975         1.984789         0.005884
 O         1.931478         2.361342        -1.343472
 C         1.080678         0.602368         0.465176
 C         0.878057        -0.636259        -0.234544
 H        -1.839800         1.647140         0.508978
 H        -1.198051         3.291427         0.049492
 H        -1.138992         1.930916        -1.017146
 H         1.949846         0.461548         2.594847
 H         2.473055         3.039582         1.917018
 H         3.535723         1.734466         1.069131
 H         2.630323         1.715396        -1.543999
 H         0.076416        -1.222619         0.203162
 H         0.701385        -0.365451        -1.291914
 H         1.745844        -1.286874        -0.030052
