19
Iteration:   768
 C        -0.925882         2.166717        -0.136271
 C         0.220093         1.795845         0.583203
 O         0.328235         1.945853         2.055690
 C         1.516929         1.157969         1.966294
 C         2.558986         2.004077         1.167052
 C         1.609666         1.902335        -0.005866
 O         1.685118         2.400576        -1.207758
 C         1.043335         0.537807         0.506330
 C         0.933724        -0.724314        -0.259144
 H        -1.765125         1.500997         0.006292
 H        -1.197960         3.191957         0.237753
 H        -0.871769         2.399147        -1.215927
 H         1.661493         0.489595         2.958388
 H         2.829621         3.076622         1.486850
 H         3.459943         1.345803         1.095705
 H         2.265217         1.936412        -1.894664
 H         0.343202        -1.392486         0.413589
 H         0.436770        -0.521018        -1.163409
 H         1.832548        -1.281032        -0.363445
