19
Iteration:  2487charge 0 multiplicity 1
 C        -1.172925         2.399181         0.027607
 C         0.053849         1.765224         0.618510
 O         0.285116         1.685635         2.043618
 C         1.517871         0.995004         1.762195
 C         2.566690         2.124599         1.208586
 C         1.634325         1.987102        -0.040475
 O         1.957201         2.354274        -1.289127
 C         1.092505         0.684423         0.304079
 C         1.015250        -0.744804        -0.063841
 H        -2.027883         1.768748         0.466408
 H        -1.301380         3.286587         0.610178
 H        -1.276544         2.565140        -1.045237
 H         1.902231         0.298954         2.675240
 H         2.384718         3.176130         1.616969
 H         3.646317         1.814785         1.054344
 H         2.139784         1.555793        -1.776123
 H         0.373185        -1.197340         0.689810
 H         0.407911        -0.763468        -0.920739
 H         2.081697        -1.306251        -0.267616
