19
Iteration:  2110
 C        -1.033984         2.170707        -0.123871
 C         0.225963         1.863560         0.610450
 O         0.343405         1.799304         2.085911
 C         1.635466         1.070019         1.897126
 C         2.541551         2.150370         1.268505
 C         1.616941         1.946275         0.031502
 O         1.768861         2.334751        -1.367613
 C         1.186142         0.600005         0.397962
 C         0.695445        -0.726942        -0.150422
 H        -1.899982         1.550153         0.102945
 H        -1.305219         3.188505        -0.056278
 H        -0.655682         1.967250        -1.250068
 H         1.908560         0.363924         2.807414
 H         2.553026         3.131030         1.822812
 H         3.551275         1.741082         1.249137
 H         2.696563         2.653268        -1.535532
 H         0.089365        -1.227587         0.642572
 H         0.047892        -0.652976        -1.088934
 H         1.502491        -1.380637        -0.381859
