19
Iteration:  1121charge 0 multiplicity 1
 C        -1.060331         2.304204         0.038803
 C         0.179210         1.749425         0.579409
 O         0.290426         1.820458         2.028807
 C         1.548584         1.077515         1.860398
 C         2.533841         2.175171         1.209594
 C         1.639020         2.017497        -0.014534
 O         1.921821         2.434175        -1.331370
 C         1.029360         0.573389         0.427495
 C         0.803077        -0.920740        -0.159885
 H        -1.951047         1.825729         0.449417
 H        -1.080232         3.398017         0.003378
 H        -0.862081         2.145205        -1.043564
 H         2.003898         0.476892         2.723773
 H         2.568318         3.118258         1.748586
 H         3.602741         1.744285         1.218289
 H         2.523672         1.838684        -1.767239
 H         0.169732        -1.346594         0.588074
 H         0.543274        -0.926119        -1.129512
 H         1.703794        -1.692125        -0.267320
