19
Iteration:   924charge 0 multiplicity 1
 C        -0.958827         2.212703        -0.185523
 C         0.230750         1.847245         0.601941
 O         0.349140         1.914030         2.005592
 C         1.515082         1.019327         1.855932
 C         2.619828         1.948631         1.119354
 C         1.601697         2.048521         0.096198
 O         1.635416         2.449845        -1.204932
 C         0.974854         0.540898         0.502587
 C         0.966372        -0.760099        -0.112566
 H        -1.794690         1.563596         0.100393
 H        -1.104845         3.273867         0.104649
 H        -0.785825         2.111481        -1.329221
 H         1.920047         0.603732         2.717636
 H         2.862326         2.864143         1.631483
 H         3.443567         1.199810         1.009398
 H         2.369705         1.988502        -1.580957
 H         0.114074        -1.399168         0.210671
 H         0.689941        -0.672298        -1.208853
 H         1.821290        -1.264662        -0.014869
