19
Iteration:  2719charge 0 multiplicity 1
 C        -1.097356         2.239561        -0.130041
 C         0.218893         1.752059         0.611560
 O         0.318794         1.959559         2.076566
 C         1.506467         1.144466         1.923579
 C         2.637585         1.966687         1.262239
 C         1.621116         1.857534         0.037026
 O         1.709227         2.427192        -1.232592
 C         1.034450         0.493306         0.502809
 C         1.006515        -0.685682        -0.334693
 H        -1.936976         1.603279         0.074398
 H        -1.343779         3.247368         0.168003
 H        -0.953036         2.285050        -1.223534
 H         1.828064         0.722802         2.869712
 H         2.868441         3.057299         1.651260
 H         3.590153         1.382116         1.117011
 H         1.970046         1.746766        -1.878443
 H         0.213258        -1.309935        -0.009215
 H         0.811066        -0.538486        -1.312118
 H         2.061582        -1.226329        -0.439377
