19
Iteration:  2849
 C        -0.918412         2.208175        -0.221588
 C         0.230962         1.844253         0.612654
 O         0.327933         1.828126         2.042739
 C         1.530233         1.024081         1.871509
 C         2.654971         1.953745         1.173086
 C         1.585199         2.047962         0.030056
 O         1.686965         2.566582        -1.195812
 C         0.982345         0.566878         0.424561
 C         0.881677        -0.773792        -0.103733
 H        -1.744087         1.499888        -0.037193
 H        -1.220975         3.248376        -0.020839
 H        -0.818609         2.216956        -1.311555
 H         1.706901         0.450097         2.692127
 H         3.035956         2.713339         1.798490
 H         3.468725         1.288971         0.947124
 H         2.016564         1.837077        -1.727262
 H         0.424292        -1.367293         0.692559
 H         0.298287        -0.956073        -0.924124
 H         1.920053        -1.319487        -0.114534
