19
Iteration:  1423charge 0 multiplicity 1
 C        -1.143202         2.341413         0.038716
 C         0.229640         1.832503         0.555697
 O         0.310284         1.935866         2.010451
 C         1.522600         1.093469         1.881003
 C         2.498462         2.016349         1.257596
 C         1.699243         1.919002        -0.057442
 O         1.869916         2.402570        -1.352662
 C         1.096672         0.544536         0.447890
 C         0.845320        -0.866435        -0.115060
 H        -1.839717         1.542467         0.259069
 H        -1.362767         3.272136         0.462637
 H        -0.956610         2.466314        -1.097712
 H         1.932439         0.496812         2.724767
 H         2.701529         3.006149         1.587854
 H         3.459859         1.460743         1.202780
 H         2.464657         1.852079        -1.849034
 H         0.033346        -1.445324         0.391708
 H         0.709813        -0.805152        -1.240524
 H         1.682904        -1.454781        -0.088139
