19
Iteration:  4769charge 0 multiplicity 1
 C        -1.126981         2.428805         0.069672
 C         0.191125         1.803609         0.648169
 O         0.448091         1.900488         2.067410
 C         1.522474         0.946758         1.856898
 C         2.602759         1.840980         1.162690
 C         1.635368         1.983563        -0.005391
 O         1.810324         2.289879        -1.363333
 C         0.889951         0.524756         0.522474
 C         0.936492        -0.625943        -0.262734
 H        -2.022705         1.900914         0.305145
 H        -0.992124         3.493564         0.244402
 H        -1.014496         2.268352        -1.052583
 H         1.815965         0.360566         2.767766
 H         2.857300         2.785647         1.606708
 H         3.514101         1.423702         0.723862
 H         1.320583         3.157567        -1.423559
 H         0.313110        -1.439491         0.069539
 H         0.875825        -0.477088        -1.339692
 H         2.078721        -0.990416        -0.084846
