19
Iteration:  4587charge 0 multiplicity 1
 C        -1.054076         2.418465         0.048126
 C         0.200304         1.853598         0.651346
 O         0.355297         1.902164         2.038759
 C         1.522181         0.997651         1.839378
 C         2.761048         1.929095         1.079526
 C         1.615200         1.949125         0.078952
 O         1.821298         2.340900        -1.240788
 C         0.928463         0.535628         0.453686
 C         0.870054        -0.781079        -0.251618
 H        -2.003037         1.872893         0.243447
 H        -1.250109         3.527854        -0.054787
 H        -0.968391         2.316105        -1.050807
 H         1.801114         0.318864         2.654751
 H         3.036679         2.865452         1.666667
 H         3.536746         1.238712         0.813341
 H         1.234762         2.976550        -1.637079
 H         0.060067        -1.478305         0.185105
 H         0.560672        -0.741207        -1.286533
 H         1.748812        -1.249542        -0.106973
