19
Iteration:  4603
 C        -1.032397         2.386577        -0.068744
 C         0.213939         1.901387         0.626478
 O         0.427628         1.889862         2.104622
 C         1.571163         1.020426         1.834853
 C         2.549606         1.807760         1.123979
 C         1.621942         1.834853        -0.017073
 O         1.828179         2.436407        -1.241387
 C         0.948617         0.606893         0.443606
 C         0.841499        -0.761954        -0.172908
 H        -1.823875         1.740433         0.324194
 H        -1.194785         3.373477         0.297506
 H        -1.112874         2.225170        -1.162285
 H         1.784781         0.456300         2.759804
 H         3.005192         2.690016         1.486621
 H         3.427564         1.178473         0.800074
 H         1.101419         3.052323        -1.385831
 H         0.239491        -1.369401         0.446013
 H         0.674249        -0.534310        -1.252277
 H         1.933652        -1.216277        -0.383027
