19
Iteration:   419
 C        -1.114845         2.135975         0.007298
 C         0.216813         1.749090         0.586592
 O         0.319459         1.975289         1.997685
 C         1.529504         1.106905         1.853101
 C         2.480622         2.027309         1.148680
 C         1.658441         1.908852        -0.025669
 O         1.985549         2.484906        -1.253180
 C         1.019292         0.541123         0.489332
 C         0.804169        -0.781225        -0.152345
 H        -2.060892         1.741084         0.560468
 H        -1.130344         3.279700         0.135561
 H        -1.318695         2.092243        -1.074012
 H         1.699399         0.531080         2.824793
 H         2.821096         3.135676         1.466291
 H         3.529044         1.482551         1.025681
 H         2.572082         1.864926        -1.707081
 H         0.470757        -1.558377         0.531023
 H         0.155201        -0.695235        -1.030292
 H         1.950550        -1.117430        -0.547060
