19
Iteration:  2455charge 0 multiplicity 1
 C        -1.058876         2.356635        -0.013025
 C         0.182971         1.832231         0.615017
 O         0.268605         1.862772         2.036093
 C         1.494641         1.004346         1.833227
 C         2.512840         1.966489         1.155022
 C         1.566460         1.956878        -0.021133
 O         1.847632         2.523565        -1.302581
 C         1.033376         0.576411         0.447737
 C         1.064430        -0.876922        -0.109808
 H        -1.779927         1.547892         0.312140
 H        -1.191079         3.305386         0.445441
 H        -1.017292         2.446936        -1.124205
 H         1.761956         0.342676         2.840737
 H         2.636724         2.975201         1.639229
 H         3.532096         1.594230         1.004271
 H         2.141077         1.888358        -2.010647
 H         0.598350        -1.564629         0.599457
 H         0.437981        -0.903684        -0.975284
 H         2.159537        -1.229465        -0.371841
