19
Iteration:  4369
 C        -1.051827         2.369002         0.091673
 C         0.218763         1.787906         0.661946
 O         0.391788         1.909431         2.049871
 C         1.545449         1.086092         1.895831
 C         2.589399         1.899865         1.166371
 C         1.573685         1.874031         0.013146
 O         1.860911         2.253837        -1.360332
 C         1.025402         0.592771         0.420868
 C         0.770666        -0.631400        -0.259262
 H        -1.852790         1.728218         0.415559
 H        -1.003342         3.463501         0.099417
 H        -0.942025         2.180686        -0.939480
 H         1.826122         0.390462         2.740800
 H         2.780989         2.885624         1.611152
 H         3.462012         1.351240         0.916286
 H         1.888399         3.250170        -1.381712
 H         0.021558        -1.330444         0.115283
 H         0.661802        -0.637459        -1.319187
 H         1.751809        -1.271016        -0.196268
