19
Iteration:  2408charge 0 multiplicity 1
 C        -0.976096         2.159702        -0.180460
 C         0.263137         1.792004         0.621915
 O         0.369957         1.958997         2.107741
 C         1.488380         1.044420         1.947022
 C         2.583637         2.007948         1.197792
 C         1.590575         1.956418         0.051330
 O         1.619894         2.461222        -1.300813
 C         1.085367         0.499585         0.531603
 C         0.887471        -0.760375        -0.265437
 H        -1.820522         1.570239         0.047224
 H        -1.093635         3.259703        -0.154186
 H        -0.693605         1.954719        -1.140341
 H         1.752502         0.510508         2.771521
 H         3.037745         2.920297         1.618639
 H         3.451568         1.392267         0.765599
 H         2.520839         2.810325        -1.303818
 H         0.080322        -1.387821         0.146439
 H         0.659880        -0.443727        -1.263985
 H         1.881572        -1.334814        -0.254181
