19
Iteration:   282charge 0 multiplicity 1
 C        -1.081192         2.350976         0.029222
 C         0.219355         1.847020         0.578392
 O         0.243621         1.920012         2.004819
 C         1.519739         1.035026         1.854723
 C         2.588122         2.012201         1.216501
 C         1.671692         1.978737         0.042045
 O         1.777224         2.345729        -1.369951
 C         1.016764         0.589715         0.436588
 C         1.006331        -0.838965        -0.128854
 H        -1.911698         1.701631         0.436236
 H        -1.458650         3.397898         0.182216
 H        -1.025357         2.114573        -1.044937
 H         1.713001         0.479559         2.761700
 H         2.881086         2.927392         1.648699
 H         3.464659         1.440756         0.975561
 H         2.579039         1.932041        -1.753614
 H         0.184747        -1.430482         0.490536
 H         0.692238        -0.864121        -1.217077
 H         1.947093        -1.272471        -0.002992
