19
Iteration:  3040charge 0 multiplicity 1
 C        -1.058524         2.343644        -0.130529
 C         0.207221         1.801374         0.475679
 O         0.342146         1.737882         2.120241
 C         1.582576         1.036283         1.874719
 C         2.523587         2.092217         1.308872
 C         1.680298         1.965588         0.017039
 O         1.808329         2.501008        -1.425556
 C         1.114161         0.573596         0.387149
 C         0.765399        -0.906102        -0.026173
 H        -1.945063         1.850438         0.202373
 H        -1.121935         3.367378         0.196205
 H        -0.985000         2.351161        -1.274034
 H         1.958336         0.140520         2.607179
 H         2.573109         3.070458         1.836912
 H         3.591895         1.951955         1.235829
 H         2.753305         2.836173        -1.441164
 H         0.146696        -1.382130         0.775229
 H        -0.010572        -0.863724        -0.732956
 H         1.550246        -1.657641        -0.426629
