19
Iteration:  3450charge 0 multiplicity 1
 C        -0.904993         2.506281        -0.081269
 C         0.189193         1.694611         0.609446
 O         0.287035         1.749379         2.027406
 C         1.547888         1.054513         1.901163
 C         2.533859         2.149947         1.177081
 C         1.646473         1.926969        -0.021411
 O         1.656405         2.463060        -1.358898
 C         1.136884         0.461680         0.500361
 C         0.871006        -0.886636        -0.088188
 H        -1.948590         2.075838         0.254138
 H        -0.657624         3.560689         0.281042
 H        -0.768226         2.635928        -1.223673
 H         1.917585         0.454629         2.823936
 H         2.390667         3.110275         1.708271
 H         3.516865         1.607946         1.168413
 H         2.511804         2.228796        -1.779691
 H         0.379404        -1.512073         0.554405
 H         0.270130        -0.657006        -0.992571
 H         1.735473        -1.429690        -0.477340
