19
Iteration:  2819charge 0 multiplicity 1
 C        -1.089455         2.135396        -0.134858
 C         0.196354         1.770804         0.622493
 O         0.389419         1.929010         2.011797
 C         1.534002         1.011902         1.894500
 C         2.582382         1.974017         1.166775
 C         1.622410         1.881993        -0.061165
 O         1.836933         2.664203        -1.238066
 C         1.016648         0.540128         0.486461
 C         0.829476        -0.782120        -0.118034
 H        -1.982737         1.614303         0.124718
 H        -1.263894         3.245550        -0.030927
 H        -0.952187         1.976515        -1.154411
 H         1.623279         0.451150         2.810143
 H         2.642078         2.920360         1.823284
 H         3.526045         1.413808         1.051998
 H         2.795141         2.486637        -1.486657
 H         0.259218        -1.478096         0.474089
 H         0.320335        -0.743040        -1.032129
 H         1.803805        -1.384581        -0.253132
