19
Iteration:  4313charge 0 multiplicity 1
 C        -1.038698         2.341702         0.085505
 C         0.238995         1.869535         0.624872
 O         0.339379         1.992389         2.095769
 C         1.480874         1.013959         1.845618
 C         2.625668         1.843906         1.147741
 C         1.632826         1.931819         0.022756
 O         1.856395         2.216066        -1.375911
 C         1.009974         0.601089         0.479112
 C         0.873215        -0.636589        -0.266610
 H        -1.920897         1.858197         0.412424
 H        -1.251917         3.241406         0.710258
 H        -1.051749         2.402620        -0.980012
 H         1.587300         0.224358         2.666649
 H         2.895116         2.792423         1.597017
 H         3.449722         1.159807         1.037678
 H         1.245070         2.886085        -1.680090
 H         0.217512        -1.464895         0.096259
 H         0.638836        -0.470488        -1.327318
 H         1.886042        -1.182738        -0.337656
