19
Iteration:  2067charge 0 multiplicity 1
 C        -1.086396         2.410836        -0.033389
 C         0.177785         1.701412         0.574451
 O         0.332890         1.819371         1.981697
 C         1.574880         1.092222         1.858062
 C         2.477737         2.124099         1.207636
 C         1.611821         1.941268        -0.035638
 O         1.834526         2.436420        -1.302697
 C         1.129421         0.494922         0.447477
 C         0.888280        -0.859614        -0.080041
 H        -1.898762         1.718287         0.092453
 H        -1.310842         3.261615         0.541259
 H        -0.920306         2.608636        -1.207076
 H         1.783658         0.560962         2.903517
 H         2.725998         3.096685         1.632641
 H         3.397592         1.685293         0.857920
 H         2.718864         2.055172        -1.566421
 H         0.356895        -1.319391         0.763047
 H         0.112879        -0.802859        -0.824785
 H         1.766957        -1.450740        -0.343588
