19
Iteration:   286charge 0 multiplicity 1
 C        -1.089559         2.353880         0.016133
 C         0.221702         1.875577         0.594875
 O         0.238413         1.898988         2.017224
 C         1.519059         1.011521         1.861091
 C         2.574053         2.026679         1.213142
 C         1.673604         1.998876        -0.008645
 O         1.773363         2.344513        -1.372193
 C         1.031475         0.579221         0.450935
 C         0.972372        -0.843016        -0.114019
 H        -1.782974         1.657188         0.393925
 H        -1.134145         3.431676         0.247555
 H        -1.044470         2.112070        -1.065023
 H         1.766957         0.487124         2.773853
 H         2.733600         3.111369         1.681440
 H         3.553497         1.484466         0.952081
 H         2.574696         1.836781        -1.593220
 H         0.262261        -1.398391         0.285286
 H         0.756409        -0.909271        -1.139458
 H         1.978345        -1.367202        -0.041441
