19
Iteration:  1247charge 0 multiplicity 1
 C        -1.000930         2.330586        -0.037760
 C         0.246206         1.777437         0.568795
 O         0.304628         1.836537         2.004616
 C         1.535845         1.074175         1.895296
 C         2.546734         2.128642         1.214069
 C         1.691485         1.839525         0.005927
 O         1.726307         2.388911        -1.298865
 C         1.059694         0.518983         0.457169
 C         0.870246        -0.738567        -0.123302
 H        -1.975358         1.911081         0.173864
 H        -0.986626         3.378880         0.226235
 H        -0.823610         2.205676        -1.036926
 H         1.798722         0.415327         2.675965
 H         2.597081         3.200872         1.519160
 H         3.515235         1.713466         1.085375
 H         2.447484         2.049399        -1.875483
 H        -0.004174        -1.260047         0.338707
 H         0.491743        -0.705383        -1.207412
 H         1.744572        -1.319449         0.028731
