19
Iteration:  1606
 C        -1.070082         2.220652        -0.013536
 C         0.181978         1.739454         0.567218
 O         0.395807         2.118806         2.053389
 C         1.475312         1.111901         1.919785
 C         2.537696         1.853937         1.153217
 C         1.603837         1.881679        -0.055735
 O         1.863569         2.470122        -1.321609
 C         1.005282         0.548398         0.563796
 C         0.897586        -0.781805        -0.183916
 H        -1.732941         1.224359         0.061780
 H        -1.492113         3.076347         0.505318
 H        -1.149936         2.372384        -1.078929
 H         1.578088         0.348433         2.645030
 H         2.850001         2.861777         1.620881
 H         3.370384         1.183184         0.826760
 H         2.755303         2.142991        -1.634682
 H         0.030974        -1.312256         0.188789
 H         0.797047        -0.515244        -1.165901
 H         1.957533        -1.312949        -0.104123
