19
Iteration:  2028charge 0 multiplicity 1
 C        -1.062431         2.245332        -0.057361
 C         0.189902         1.897630         0.598258
 O         0.369591         2.020919         2.037146
 C         1.456184         1.029664         1.894415
 C         2.577480         1.843197         1.114959
 C         1.634189         1.826342        -0.069831
 O         1.742702         2.510350        -1.263365
 C         0.968088         0.580543         0.457173
 C         1.057563        -0.785296        -0.051700
 H        -1.832193         1.466501         0.094148
 H        -1.531376         3.262341         0.308391
 H        -0.921931         2.371551        -1.051744
 H         1.412155         0.523713         2.771853
 H         2.814408         2.866596         1.482985
 H         3.428565         1.080111         1.109135
 H         2.364424         2.224853        -1.951300
 H         0.330622        -1.493022         0.391145
 H         0.871045        -0.807419        -1.167784
 H         2.106838        -1.264018        -0.015040
