19
Iteration:  1540
 C        -1.002866         2.293551        -0.093056
 C         0.184499         1.766138         0.654628
 O         0.308756         1.802446         2.139463
 C         1.629708         1.106596         1.916042
 C         2.521465         2.098489         1.316626
 C         1.622595         1.929219         0.006256
 O         1.912983         2.334579        -1.463687
 C         1.021980         0.570389         0.442142
 C         0.732645        -0.679700        -0.193192
 H        -1.960109         1.816127         0.427614
 H        -0.993886         3.395544        -0.271117
 H        -0.997092         1.850728        -1.084714
 H         2.041954         0.632746         2.770994
 H         2.412420         3.167182         1.739142
 H         3.528679         1.823795         1.001154
 H         2.453469         1.586552        -1.791890
 H         0.129680        -1.315055         0.463070
 H         0.299025        -0.516051        -1.102467
 H         1.713200        -1.282095        -0.572996
