19
Iteration:  3432charge 0 multiplicity 1
 C        -0.908149         2.473381        -0.041789
 C         0.214917         1.790731         0.613443
 O         0.320157         1.808321         2.106803
 C         1.579449         1.073677         1.853680
 C         2.467962         2.091904         1.148751
 C         1.599999         1.805435        -0.033361
 O         1.711504         2.389516        -1.260339
 C         0.972717         0.498175         0.396960
 C         0.939122        -0.796138        -0.164461
 H        -1.834302         2.074379         0.133836
 H        -0.861169         3.535025         0.109557
 H        -0.730493         2.191380        -1.058649
 H         1.936910         0.433711         2.599075
 H         2.323569         3.077836         1.609031
 H         3.462395         1.734780         0.865515
 H         2.665427         2.417057        -1.490795
 H         0.444547        -1.462568         0.666124
 H         0.302858        -1.000010        -1.043011
 H         2.075964        -1.049559        -0.229780
