19
Iteration:  2138charge 0 multiplicity 1
 C        -1.027637         2.025641        -0.109477
 C         0.210936         1.742461         0.549730
 O         0.382213         2.005536         2.005766
 C         1.607993         1.137392         1.970044
 C         2.608132         2.045408         1.134018
 C         1.583273         1.861252         0.003138
 O         1.782977         2.543019        -1.216565
 C         1.022129         0.482376         0.563710
 C         0.739841        -0.715323        -0.233330
 H        -1.855911         1.454046         0.427529
 H        -1.134183         3.169084        -0.039710
 H        -0.882305         1.751397        -1.075976
 H         1.727416         0.518239         2.857338
 H         3.003049         3.056215         1.442938
 H         3.455056         1.320937         1.025943
 H         2.746976         2.391311        -1.398349
 H        -0.137359        -1.267717         0.120008
 H         0.489863        -0.432861        -1.306472
 H         1.699575        -1.310251        -0.229958
