19
Iteration:  3551
 C        -1.161354         2.084095         0.057718
 C         0.236571         1.811491         0.561733
 O         0.369192         2.024718         2.051304
 C         1.458537         1.101376         1.906796
 C         2.594324         1.993504         1.258517
 C         1.715337         1.852913        -0.011327
 O         1.859174         2.392725        -1.324407
 C         1.119794         0.555015         0.483744
 C         0.779165        -0.638661        -0.336283
 H        -1.827833         1.344904         0.667795
 H        -1.526055         3.189118         0.356529
 H        -1.249032         1.746400        -1.079149
 H         1.776980         0.592348         2.772066
 H         2.715472         3.009116         1.669369
 H         3.539160         1.349357         1.250091
 H         2.689383         2.234241        -1.793537
 H        -0.097281        -1.032477         0.046119
 H         0.542195        -0.422045        -1.363951
 H         1.573695        -1.430547        -0.226211
