19
Iteration:  2726
 C        -1.100209         2.217626        -0.124090
 C         0.171782         1.774441         0.655969
 O         0.322063         1.948557         2.067619
 C         1.525052         1.136871         1.921416
 C         2.615036         2.022278         1.241976
 C         1.637189         1.908606         0.064864
 O         1.752939         2.389031        -1.225027
 C         1.064109         0.558465         0.445366
 C         0.975562        -0.732651        -0.368196
 H        -2.096707         1.691132         0.147032
 H        -1.355502         3.232820         0.201485
 H        -0.900897         2.129148        -1.267754
 H         2.081423         0.679270         2.875730
 H         2.801060         2.905430         1.829655
 H         3.488328         1.355504         1.138857
 H         1.973316         1.666828        -1.809608
 H         0.238487        -1.499952         0.005171
 H         0.704557        -0.485103        -1.474948
 H         1.895520        -1.327354        -0.186887
