19
Iteration:  1573
 C        -1.111403         2.200627        -0.002519
 C         0.201403         1.837460         0.497967
 O         0.317692         1.956063         2.022170
 C         1.544029         1.135076         1.845427
 C         2.615919         1.992978         1.235553
 C         1.692769         1.907880         0.082022
 O         1.866537         2.309345        -1.255922
 C         1.023129         0.628867         0.437733
 C         0.804203        -0.699444        -0.232436
 H        -1.743077         1.378102         0.559812
 H        -1.535626         3.136915         0.386477
 H        -1.197178         2.038335        -1.054528
 H         1.711113         0.546271         2.682429
 H         2.877776         3.036881         1.609516
 H         3.558055         1.535803         0.876177
 H         2.512316         1.671476        -1.535896
 H         0.103566        -1.366332         0.272373
 H         0.393444        -0.579452        -1.160163
 H         1.827123        -1.308335        -0.280701
