19
Iteration:  1516charge 0 multiplicity 1
 C        -0.952202         2.360720        -0.110052
 C         0.225625         1.753766         0.624191
 O         0.300212         1.877584         2.038218
 C         1.567004         1.079986         1.902434
 C         2.511547         2.134432         1.172064
 C         1.694003         1.855387         0.034709
 O         1.764036         2.380461        -1.225796
 C         1.127473         0.529257         0.483003
 C         0.751053        -0.781379        -0.192524
 H        -1.913878         1.992538         0.401857
 H        -0.882891         3.469680        -0.404286
 H        -0.973667         1.872726        -0.992824
 H         1.802266         0.347849         2.755993
 H         2.565022         3.241125         1.393019
 H         3.471445         1.699226         0.903874
 H         2.395827         1.860478        -1.807983
 H         0.181708        -1.426115         0.465206
 H         0.266666        -0.635890        -1.153284
 H         1.659026        -1.365766        -0.535742
