19
Iteration:  1434charge 0 multiplicity 1
 C        -1.167548         2.321024        -0.035131
 C         0.134798         1.840673         0.628581
 O         0.316874         1.948550         2.006281
 C         1.560609         1.061594         1.859198
 C         2.647050         1.950278         1.183834
 C         1.603440         1.964595        -0.024848
 O         1.916501         2.474119        -1.369977
 C         1.031219         0.516925         0.500877
 C         0.910404        -0.891484        -0.083686
 H        -2.083451         1.793719         0.170590
 H        -1.391490         3.265079         0.375005
 H        -1.145531         2.474234        -1.183171
 H         1.554473         0.427777         2.743402
 H         2.740208         2.820742         1.798659
 H         3.624646         1.520672         0.895964
 H         2.596385         1.867293        -1.742309
 H         0.057856        -1.399452         0.429085
 H         0.623274        -0.887195        -1.169177
 H         1.747752        -1.431525         0.133008
