19
Iteration:  4241
 C        -1.008666         2.447603        -0.047770
 C         0.240813         1.781212         0.581492
 O         0.378396         1.812267         2.140330
 C         1.588905         1.084670         1.878043
 C         2.561399         1.934129         1.194657
 C         1.671473         1.940850        -0.077086
 O         1.799936         2.441838        -1.321855
 C         1.044524         0.514476         0.378402
 C         0.690317        -0.814276        -0.128470
 H        -2.015810         2.000636         0.319542
 H        -1.241552         3.468054         0.092336
 H        -0.922602         2.074540        -1.064488
 H         2.146948         0.454033         2.579944
 H         2.776890         2.838283         1.861926
 H         3.504124         1.374416         1.024549
 H         2.327344         3.221704        -1.369823
 H         0.073428        -1.441922         0.510650
 H         0.188838        -0.873216        -1.108258
 H         1.540471        -1.479732        -0.313245
