19
Iteration:  1993
 C        -1.065592         2.245988        -0.117074
 C         0.144585         1.848610         0.682612
 O         0.294566         1.940961         2.047381
 C         1.624176         1.037848         1.887775
 C         2.668344         1.960591         1.181618
 C         1.535985         2.059375         0.017285
 O         1.729642         2.293695        -1.283785
 C         1.049694         0.639300         0.490843
 C         0.932857        -0.758483        -0.207809
 H        -1.958717         1.884128         0.273844
 H        -1.092728         3.373225        -0.088553
 H        -0.897309         1.908150        -1.179990
 H         1.809731         0.427925         2.733276
 H         2.951888         2.857012         1.702639
 H         3.628390         1.407241         0.941582
 H         2.468294         1.704550        -1.550327
 H         0.008182        -1.309354        -0.004493
 H         0.853905        -0.526859        -1.228845
 H         1.846011        -1.503131        -0.053585
