19
Iteration:   425
 C        -1.138109         2.192610         0.008523
 C         0.172309         1.739845         0.552675
 O         0.341013         1.937761         2.008207
 C         1.534186         1.151643         1.892301
 C         2.564665         2.047934         1.237916
 C         1.672230         1.937862        -0.020340
 O         1.957955         2.457137        -1.271107
 C         1.034885         0.525223         0.434228
 C         0.815364        -0.829240        -0.181166
 H        -1.999747         1.794400         0.443920
 H        -1.208199         3.251103         0.014398
 H        -1.363445         2.041536        -1.066954
 H         1.872108         0.656752         2.805377
 H         2.600314         3.032968         1.539169
 H         3.506304         1.684622         1.040703
 H         2.536226         1.812451        -1.683222
 H         0.292357        -1.506109         0.573433
 H         0.119900        -0.822012        -1.036051
 H         1.695012        -1.080640        -0.532189
