19
Iteration:  2822
 C        -1.096991         2.141884        -0.154159
 C         0.186531         1.809034         0.657717
 O         0.382973         1.927725         2.041172
 C         1.535610         1.031170         1.887324
 C         2.588245         1.958010         1.166934
 C         1.648147         1.904339        -0.091499
 O         1.822095         2.649456        -1.208830
 C         1.024897         0.525182         0.459271
 C         0.853120        -0.803515        -0.105525
 H        -2.024163         1.555632         0.013479
 H        -1.260558         3.239265        -0.136769
 H        -0.961803         2.029768        -1.259158
 H         1.588075         0.317569         2.841041
 H         2.709605         2.919421         1.773718
 H         3.569495         1.417071         1.027993
 H         2.693481         2.491193        -1.599633
 H         0.278734        -1.572817         0.500493
 H         0.220320        -0.704577        -1.138241
 H         1.726865        -1.340374        -0.196022
