19
Iteration:  2398
 C        -0.929042         2.108384        -0.188235
 C         0.176162         1.812245         0.685670
 O         0.370211         1.867328         2.143693
 C         1.521519         1.018214         1.908531
 C         2.552912         2.039286         1.177935
 C         1.627944         1.929943         0.004185
 O         1.696570         2.429614        -1.310401
 C         1.050118         0.625923         0.477488
 C         0.855439        -0.666988        -0.201752
 H        -1.836184         1.645049         0.188687
 H        -1.202742         3.166132        -0.170030
 H        -0.746932         1.805323        -1.138469
 H         1.862931         0.478378         2.769944
 H         2.804678         3.053611         1.540892
 H         3.459512         1.373382         1.061800
 H         2.521939         2.792753        -1.607400
 H        -0.005433        -1.269753         0.086909
 H         0.742389        -0.436359        -1.211794
 H         1.758735        -1.393626        -0.230147
