19
Iteration:  2776charge 0 multiplicity 1
 C        -1.208849         2.193631         0.050932
 C         0.165561         1.804156         0.602345
 O         0.283056         1.781980         2.017052
 C         1.519137         1.107310         1.895278
 C         2.592579         2.138903         1.310480
 C         1.715608         1.913595        -0.015033
 O         1.949965         2.412352        -1.333593
 C         1.129815         0.557537         0.353670
 C         0.804717        -0.737370        -0.243778
 H        -1.946643         1.656664         0.586946
 H        -1.419883         3.302578        -0.012767
 H        -1.296474         1.852021        -0.918151
 H         1.849639         0.490793         2.692463
 H         2.587986         3.269883         1.568356
 H         3.633950         1.797983         1.152585
 H         2.926740         2.398243        -1.509925
 H         0.012246        -1.155559         0.394666
 H         0.411541        -0.592698        -1.259821
 H         1.587356        -1.496011        -0.098910
