19
Iteration:  1900
 C        -1.054743         2.150348        -0.122252
 C         0.176394         1.890933         0.676637
 O         0.347989         1.952720         2.104001
 C         1.459167         1.100230         1.867197
 C         2.647750         1.898748         1.134876
 C         1.659688         1.929363        -0.009687
 O         1.868060         2.536153        -1.329350
 C         0.901501         0.630489         0.404804
 C         0.887484        -0.832692        -0.052386
 H        -1.996056         1.587453         0.331922
 H        -1.299381         3.243065        -0.079764
 H        -0.860749         1.894116        -1.113946
 H         1.610855         0.235192         2.586284
 H         3.029166         2.883717         1.465966
 H         3.414495         1.210145         1.011589
 H         2.594542         1.984832        -1.662324
 H         0.473697        -1.615320         0.618522
 H         0.275786        -0.936757        -1.050578
 H         1.865972        -1.131440        -0.307895
