19
Iteration:  3207charge 0 multiplicity 1
 C        -1.124542         2.401044        -0.036251
 C         0.195647         1.890060         0.561867
 O         0.338484         1.897139         2.005502
 C         1.484440         1.047606         1.811381
 C         2.558055         2.022891         1.222205
 C         1.654452         1.908154         0.038177
 O         1.812558         2.413319        -1.259651
 C         1.068086         0.525924         0.416709
 C         0.941451        -0.910802        -0.152990
 H        -1.916018         1.961976         0.627957
 H        -1.260101         3.447059         0.112244
 H        -1.247662         2.185159        -1.052607
 H         1.705800         0.571829         2.710170
 H         2.753398         2.910310         1.822163
 H         3.553254         1.641139         1.025788
 H         2.591733         1.907823        -1.596021
 H         0.296928        -1.466762         0.553809
 H         0.445459        -0.904623        -1.178961
 H         2.021655        -1.466487        -0.313706
