19
Iteration:  1352charge 0 multiplicity 1
 C        -0.989191         2.166222        -0.151787
 C         0.242932         1.846183         0.714453
 O         0.291381         1.991984         2.075889
 C         1.584859         1.059231         1.834818
 C         2.612946         2.038895         1.117343
 C         1.633147         1.892598         0.035302
 O         1.770360         2.332201        -1.243998
 C         0.935587         0.554091         0.543230
 C         0.835960        -0.671012        -0.208324
 H        -1.826304         1.449670         0.132108
 H        -1.224998         3.290879        -0.210655
 H        -0.707230         2.034460        -1.184034
 H         1.733411         0.477242         2.763813
 H         2.969099         2.899069         1.738913
 H         3.484808         1.369035         0.945052
 H         2.440341         1.867111        -1.726161
 H         0.233463        -1.393368         0.284801
 H         0.474805        -0.324203        -1.108577
 H         1.847324        -1.116237        -0.575404
