19
Iteration:  2808charge 0 multiplicity 1
 C        -1.044528         2.131299        -0.043300
 C         0.194360         1.726349         0.512780
 O         0.363439         1.930443         1.962375
 C         1.538357         1.045645         1.870626
 C         2.509610         1.978702         1.213552
 C         1.600878         1.933711         0.026841
 O         1.882302         2.626595        -1.269898
 C         1.037095         0.487543         0.494950
 C         0.788587        -0.784314        -0.143433
 H        -1.769915         1.583958         0.502277
 H        -1.190169         3.233779         0.134085
 H        -1.072481         1.929800        -1.064203
 H         1.886820         0.540007         2.729785
 H         2.701778         3.046904         1.654705
 H         3.510782         1.565212         0.961711
 H         2.868299         2.577144        -1.306284
 H         0.125394        -1.322359         0.490346
 H         0.386708        -0.637930        -1.087518
 H         1.819946        -1.282557        -0.301898
