19
Iteration:  4423
 C        -1.030535         2.385987         0.012588
 C         0.222208         1.798454         0.681623
 O         0.400297         1.819390         2.041265
 C         1.552725         1.028076         1.899844
 C         2.587270         1.999546         1.142757
 C         1.646390         1.929883         0.022656
 O         1.911953         2.409861        -1.336596
 C         1.001494         0.510376         0.343683
 C         0.684655        -0.800293        -0.193647
 H        -1.872233         1.848850         0.406936
 H        -0.954378         3.522871        -0.049937
 H        -0.749313         2.138830        -0.982049
 H         2.020314         0.506828         2.849316
 H         2.700304         2.996729         1.582142
 H         3.490308         1.633141         0.733158
 H         1.552343         3.351509        -1.252396
 H        -0.033935        -1.171417         0.716767
 H        -0.072591        -0.791379        -1.020905
 H         1.655774        -1.568107        -0.195296
