19
Iteration:   939
 C        -1.068946         2.258924        -0.152157
 C         0.171853         1.758549         0.558775
 O         0.385421         1.929519         2.031608
 C         1.579615         1.103926         1.887521
 C         2.636882         1.981755         1.256133
 C         1.619995         1.869528         0.020526
 O         1.716636         2.456081        -1.249446
 C         0.974957         0.567016         0.541331
 C         0.923392        -0.747094        -0.190713
 H        -2.049028         1.591531         0.068904
 H        -1.451817         3.288762         0.083586
 H        -0.869426         2.227684        -1.205077
 H         1.589796         0.387087         2.767526
 H         2.938112         2.945337         1.748048
 H         3.579248         1.519260         0.939351
 H         2.343071         1.982266        -1.864601
 H         0.280656        -1.494234         0.303834
 H         0.654413        -0.607172        -1.305467
 H         1.990113        -1.146313        -0.120402
