19
Iteration:  2088charge 0 multiplicity 1
 C        -0.983612         2.255889        -0.035995
 C         0.273981         1.838516         0.583734
 O         0.225886         1.690265         2.113220
 C         1.557157         1.057535         1.782682
 C         2.535427         2.151421         1.200346
 C         1.725048         2.006038        -0.065343
 O         1.797938         2.326131        -1.384375
 C         1.085900         0.620765         0.431153
 C         0.781669        -0.747012        -0.022134
 H        -1.879861         1.668350         0.149640
 H        -1.092722         3.209207         0.369801
 H        -0.746402         2.381085        -1.211897
 H         1.736329         0.300091         2.671966
 H         2.288310         3.175694         1.598108
 H         3.575835         1.975746         1.417258
 H         2.698696         2.431571        -1.662812
 H         0.300085        -1.395027         0.737193
 H         0.051340        -0.662693        -0.881403
 H         1.673069        -1.183124        -0.366100
