19
Iteration:  4119
 C        -1.120978         2.407583         0.115024
 C         0.172503         1.859040         0.596487
 O         0.370958         1.842861         2.140080
 C         1.577867         1.041685         1.833508
 C         2.605964         2.001458         1.202327
 C         1.696632         1.907027        -0.067263
 O         1.960086         2.180516        -1.305104
 C         0.930759         0.619727         0.451629
 C         0.790449        -0.672464        -0.320523
 H        -1.969464         1.671588         0.438288
 H        -1.372529         3.346277         0.540444
 H        -1.101574         2.469198        -0.973698
 H         1.837597         0.295046         2.653194
 H         2.727705         3.046354         1.620444
 H         3.600142         1.537265         1.025101
 H         1.453515         2.867549        -1.758468
 H         0.037727        -1.474915        -0.029421
 H         0.500816        -0.594679        -1.416917
 H         1.855540        -1.146054        -0.208121
