19
Iteration:  3447
 C        -0.884863         2.497039        -0.082415
 C         0.184762         1.719210         0.624784
 O         0.301951         1.732828         2.022015
 C         1.556244         1.052800         1.894106
 C         2.515897         2.122346         1.180312
 C         1.621641         1.898756        -0.036232
 O         1.662164         2.459738        -1.355980
 C         1.106317         0.505289         0.501904
 C         0.884838        -0.880609        -0.085943
 H        -1.936829         2.119044         0.268912
 H        -0.702923         3.541194         0.252522
 H        -0.759741         2.614614        -1.163963
 H         1.866891         0.519796         2.842762
 H         2.418414         3.194721         1.595307
 H         3.573052         1.735767         1.230974
 H         2.565967         2.266174        -1.725582
 H         0.373904        -1.676024         0.551739
 H         0.333363        -0.636510        -0.988696
 H         1.709933        -1.376965        -0.499850
