19
Iteration:  3065charge 0 multiplicity 1
 C        -1.015752         2.298700        -0.017048
 C         0.200229         1.793475         0.613400
 O         0.293284         1.799503         1.972214
 C         1.539100         1.039644         1.774417
 C         2.471980         2.059635         1.121127
 C         1.637814         1.909145        -0.004039
 O         1.917096         2.515331        -1.275749
 C         1.041326         0.583714         0.396061
 C         0.821808        -0.854764         0.006184
 H        -1.860932         1.665799         0.277687
 H        -1.266863         3.216896         0.415370
 H        -0.922901         2.389623        -1.058879
 H         1.915572         0.309873         2.438272
 H         2.609807         3.058572         1.586344
 H         3.528999         1.749424         1.060563
 H         2.897136         2.673606        -1.279078
 H         0.350105        -1.352075         0.827930
 H         0.084576        -0.991497        -0.822446
 H         1.633239        -1.342977        -0.296636
