19
Iteration:   547charge 0 multiplicity 1
 C        -1.161815         2.271493         0.032065
 C         0.210138         1.919979         0.495348
 O         0.276383         1.872039         2.022427
 C         1.514250         1.040061         1.890944
 C         2.607469         1.996130         1.229632
 C         1.627503         1.985492        -0.010143
 O         1.858208         2.398708        -1.320400
 C         1.037247         0.636223         0.371737
 C         0.961014        -0.839403        -0.116205
 H        -2.042130         1.611698         0.232980
 H        -1.583719         3.213088         0.378983
 H        -1.158601         2.349564        -1.087199
 H         1.849566         0.396695         2.865119
 H         3.112911         2.849692         1.611321
 H         3.281000         1.218712         0.982575
 H         2.688378         1.909568        -1.592937
 H         0.139965        -1.503686         0.603663
 H         0.787732        -0.964237        -1.179122
 H         1.913410        -1.154006         0.206406
