19
Iteration:  4167charge 0 multiplicity 1
 C        -1.059457         2.269920         0.042743
 C         0.204102         1.861799         0.660929
 O         0.392603         1.927119         2.012355
 C         1.595998         1.017143         1.817022
 C         2.605178         1.928177         1.152954
 C         1.641949         1.919322         0.001109
 O         1.975636         2.309271        -1.241379
 C         0.950994         0.546441         0.504506
 C         0.737086        -0.649593        -0.267731
 H        -1.858653         1.799646         0.576677
 H        -1.323934         3.324417         0.335968
 H        -1.209412         2.124187        -1.091411
 H         1.845331         0.528003         2.738293
 H         2.803259         2.869635         1.612250
 H         3.517918         1.419243         0.807055
 H         1.159810         2.761956        -1.582805
 H        -0.185837        -1.315809        -0.001714
 H         0.340845        -0.332462        -1.331100
 H         1.619813        -1.314964        -0.352179
