19
Iteration:  1151
 C        -1.211797         2.231647         0.078743
 C         0.148479         1.795489         0.476098
 O         0.330101         1.915516         1.968099
 C         1.539406         1.075016         1.894918
 C         2.510519         2.024060         1.234955
 C         1.687922         1.877043        -0.052004
 O         1.927128         2.379481        -1.280679
 C         1.109669         0.599175         0.465368
 C         0.887967        -0.701175        -0.166466
 H        -1.990551         1.618580         0.437375
 H        -1.264501         3.248208         0.494300
 H        -1.181986         2.278833        -1.123139
 H         1.899746         0.519856         2.789792
 H         2.634291         2.987776         1.719450
 H         3.466251         1.488450         1.255076
 H         2.602326         1.879229        -1.844581
 H         0.346113        -1.269674         0.597463
 H         0.244056        -0.632222        -1.114707
 H         1.759412        -1.281378        -0.412966
