19
Iteration:   594charge 0 multiplicity 1
 C        -1.013104         2.264816        -0.032969
 C         0.214768         1.793561         0.635616
 O         0.330864         1.846327         2.042480
 C         1.553431         1.175039         1.944340
 C         2.483925         2.125127         1.222971
 C         1.678952         1.890748        -0.008274
 O         1.891194         2.386306        -1.331411
 C         1.077906         0.541781         0.497123
 C         0.779665        -0.837210        -0.292903
 H        -1.889577         1.628577         0.254334
 H        -1.448515         3.249733         0.247566
 H        -0.982157         2.160067        -1.090846
 H         1.839575         0.807786         2.909513
 H         2.259324         3.070520         1.634415
 H         3.540513         1.917461         1.144224
 H         2.470110         1.799438        -1.807193
 H         0.160112        -1.577106         0.433464
 H         0.131037        -0.559762        -1.139200
 H         1.761155        -1.295996        -0.572222
