19
Iteration:  3860charge 0 multiplicity 1
 C        -1.002660         2.507439        -0.004624
 C         0.150826         1.786653         0.578767
 O         0.362342         1.765545         2.095994
 C         1.564766         1.035419         1.821573
 C         2.499073         2.125763         1.173436
 C         1.609697         1.869399        -0.034905
 O         1.876346         2.367638        -1.272156
 C         0.994054         0.523207         0.445845
 C         0.925535        -0.835236        -0.177678
 H        -2.046261         2.096330         0.205885
 H        -1.054823         3.550391         0.409775
 H        -0.885788         2.545167        -1.048747
 H         1.940282         0.435103         2.692456
 H         2.622778         3.115625         1.673157
 H         3.463649         1.685768         0.957759
 H         1.039213         2.360521        -1.735268
 H         0.401717        -1.639985         0.390214
 H         0.415738        -0.887787        -1.177424
 H         2.089222        -1.182262        -0.195609
