19
Iteration:  4079
 C        -1.047313         2.420363         0.003377
 C         0.192969         1.790120         0.608076
 O         0.375869         1.902687         2.090508
 C         1.517033         1.077688         1.851337
 C         2.691836         1.916938         1.176691
 C         1.649887         1.872977         0.077941
 O         1.751872         2.363139        -1.346057
 C         0.951257         0.563055         0.399121
 C         0.809153        -0.783563        -0.238088
 H        -1.914041         1.792611         0.286262
 H        -1.075089         3.445316         0.508705
 H        -0.992071         2.402555        -1.082302
 H         1.823734         0.414787         2.692694
 H         2.960699         2.779421         1.741560
 H         3.529645         1.299200         0.937549
 H         2.456064         3.052686        -1.275112
 H         0.279522        -1.509076         0.379649
 H         0.614465        -0.691688        -1.320195
 H         1.783492        -1.164630        -0.342599
