19
Iteration:  4024charge 0 multiplicity 1
 C        -1.078334         2.416191        -0.107749
 C         0.211290         1.814715         0.590048
 O         0.413931         1.794307         2.065822
 C         1.597855         1.014302         1.866927
 C         2.612232         1.995237         1.161490
 C         1.656000         1.975490         0.071852
 O         1.791864         2.544281        -1.243826
 C         1.040022         0.493326         0.400672
 C         0.723866        -0.837555        -0.143408
 H        -1.977257         2.015153         0.363984
 H        -0.981323         3.537761        -0.015462
 H        -0.885330         2.072380        -1.093031
 H         1.937833         0.278771         2.652399
 H         2.747768         2.951313         1.647123
 H         3.517126         1.495985         0.883140
 H         2.027777         1.756985        -1.803049
 H         0.116157        -1.450539         0.500468
 H         0.145986        -0.814523        -1.070442
 H         1.601254        -1.345438        -0.309552
