19
Iteration:  3247
 C        -1.039442         2.325186        -0.160269
 C         0.174759         1.874271         0.573781
 O         0.296364         1.884084         2.132245
 C         1.512185         1.055682         1.865113
 C         2.620667         1.834917         1.120120
 C         1.610798         1.986003        -0.068217
 O         1.837752         2.652366        -1.308976
 C         0.990266         0.499399         0.511012
 C         0.926490        -0.903303         0.002543
 H        -1.949321         1.616881        -0.093395
 H        -1.404539         3.372807         0.061649
 H        -0.761405         2.238571        -1.276080
 H         1.704696         0.318333         2.695984
 H         2.964617         2.756034         1.665525
 H         3.442469         1.106468         0.941491
 H         2.369630         2.162750        -1.942624
 H         0.472336        -1.687902         0.622083
 H         0.295207        -0.947610        -0.808480
 H         1.863348        -1.201356        -0.181452
