19
Iteration:  1462
 C        -1.051729         2.287033        -0.109171
 C         0.236055         1.920215         0.646789
 O         0.344025         1.934882         2.017879
 C         1.515902         1.086190         1.801108
 C         2.546994         1.814995         1.060304
 C         1.577159         1.888177        -0.022915
 O         1.807871         2.504365        -1.221666
 C         0.977767         0.611252         0.467125
 C         0.944517        -0.840995        -0.029828
 H        -1.996040         1.692461         0.297409
 H        -1.247450         3.442238        -0.032579
 H        -1.045712         2.135334        -1.120274
 H         1.636869         0.351728         2.637281
 H         2.787273         2.825120         1.585589
 H         3.365811         1.130542         0.862368
 H         2.728663         2.274459        -1.551103
 H         0.234979        -1.394793         0.591406
 H         0.740118        -1.068719        -1.043973
 H         2.094870        -1.239037         0.253505
