19
Iteration:  1408charge 0 multiplicity 1
 C        -0.956840         2.264711         0.022444
 C         0.272869         1.811023         0.531684
 O         0.312853         1.873416         1.990601
 C         1.463638         1.119739         1.893697
 C         2.553545         2.137833         1.185960
 C         1.689284         1.843610         0.005906
 O         1.808304         2.309775        -1.294681
 C         1.054909         0.552988         0.426350
 C         0.824403        -0.719499        -0.187098
 H        -1.896545         1.629129         0.357520
 H        -1.218107         3.156461         0.705834
 H        -1.175062         2.520808        -0.946265
 H         1.494309         0.563848         2.777837
 H         2.445631         3.107358         1.777854
 H         3.601758         1.808100         1.120654
 H         2.489274         1.754584        -1.756004
 H         0.007643        -1.138573         0.402401
 H         0.448747        -0.640272        -1.132177
 H         1.740968        -1.449676        -0.016887
