19
Iteration:   815charge 0 multiplicity 1
 C        -1.072885         2.151068        -0.020667
 C         0.151796         1.856600         0.627063
 O         0.342407         1.942319         2.055035
 C         1.510270         1.092353         1.887249
 C         2.509321         2.028733         1.192915
 C         1.599584         1.962170         0.031902
 O         1.863129         2.336097        -1.278069
 C         1.098991         0.605689         0.438513
 C         0.884189        -0.735210        -0.232272
 H        -1.837122         1.458009         0.321693
 H        -1.440875         3.222650        -0.004980
 H        -1.000619         2.109771        -1.167895
 H         1.821133         0.475249         2.660179
 H         2.855474         2.904678         1.643973
 H         3.416072         1.483489         0.808652
 H         2.716110         1.907021        -1.494083
 H         0.575072        -1.437613         0.559813
 H         0.339807        -0.668511        -1.244351
 H         1.782179        -1.070611        -0.623971
