19
Iteration:  1082
 C        -0.909388         2.209017        -0.190215
 C         0.286990         1.861412         0.643849
 O         0.313963         1.879430         1.993498
 C         1.549665         1.053772         1.863640
 C         2.584718         1.995939         1.145313
 C         1.632583         1.952805         0.028387
 O         1.622036         2.480643        -1.233946
 C         1.017544         0.537214         0.551109
 C         0.856635        -0.785995        -0.105548
 H        -1.898036         1.848061         0.317529
 H        -1.011157         3.313582        -0.057973
 H        -0.795485         1.911120        -1.277749
 H         1.681402         0.387946         2.709985
 H         2.974829         2.936254         1.637599
 H         3.455528         1.395646         0.951599
 H         2.541750         2.384006        -1.574677
 H         0.010811        -1.459658         0.238508
 H         0.788894        -0.637797        -1.346981
 H         1.735701        -1.355839        -0.003420
