19
Iteration:   989charge 0 multiplicity 1
 C        -1.263274         2.279372         0.045054
 C         0.111546         1.767424         0.571021
 O         0.286898         1.839473         1.978561
 C         1.606074         1.045737         1.845275
 C         2.582412         2.101389         1.241772
 C         1.718295         1.926691         0.020098
 O         1.940534         2.265074        -1.308829
 C         1.075293         0.633657         0.472200
 C         0.897551        -0.678573        -0.220063
 H        -2.114479         1.794393         0.394206
 H        -1.348448         3.283399         0.432026
 H        -1.457035         2.352498        -1.054485
 H         1.829619         0.618232         2.790785
 H         2.467053         3.129634         1.553043
 H         3.664018         1.780573         1.219786
 H         2.787207         1.938804        -1.675250
 H         0.376560        -1.412133         0.446752
 H         0.150727        -0.550898        -1.055126
 H         1.968788        -1.152404        -0.494173
