19
Iteration:  3653
 C        -1.165564         2.439284        -0.061916
 C         0.196381         1.773383         0.477132
 O         0.415027         1.968543         1.914434
 C         1.545816         1.060066         1.917023
 C         2.601675         1.844511         1.263500
 C         1.653629         1.862884         0.003837
 O         1.659870         2.531603        -1.230567
 C         0.997549         0.509287         0.404267
 C         1.018210        -0.863935        -0.092420
 H        -2.062559         1.831875         0.183057
 H        -1.358939         3.454046         0.664859
 H        -1.009133         2.422323        -1.139924
 H         1.633431         0.328529         2.777032
 H         2.937138         2.774176         1.843066
 H         3.529520         1.363106         0.951798
 H         2.600808         2.470893        -1.575616
 H         0.582623        -1.567334         0.684801
 H         0.449655        -0.993380        -1.018537
 H         2.015192        -1.216819        -0.275485
