19
Iteration:    49charge 0 multiplicity 1
 C        -1.015669         2.438920        -0.025792
 C         0.109743         1.721543         0.629369
 O         0.317963         1.804464         2.090572
 C         1.564396         1.096170         1.918242
 C         2.462686         2.168181         1.202911
 C         1.636305         1.835107        -0.015652
 O         1.854169         2.251331        -1.377372
 C         1.072011         0.600750         0.518190
 C         0.947806        -0.713204        -0.248290
 H        -2.042638         2.035962         0.330502
 H        -1.025496         3.580669         0.196118
 H        -0.836013         2.110955        -1.135361
 H         1.972444         0.722303         2.844528
 H         2.428583         3.175708         1.611991
 H         3.485639         1.788791         1.144366
 H         2.236836         1.468580        -1.881220
 H         0.335434        -1.481723         0.451473
 H         0.218582        -0.570121        -1.058288
 H         1.839998        -1.130411        -0.679682
