19
Iteration:   182charge 0 multiplicity 1
 C        -0.898977         2.223252        -0.048708
 C         0.285671         1.790538         0.560955
 O         0.295047         1.786409         2.028386
 C         1.572607         1.090668         1.920553
 C         2.449375         2.159896         1.235624
 C         1.706156         2.008400        -0.032278
 O         1.733933         2.356242        -1.336289
 C         1.205859         0.599602         0.410316
 C         0.692382        -0.776672        -0.143406
 H        -1.797122         1.695891         0.516146
 H        -1.124069         3.387734        -0.002959
 H        -1.023158         2.085287        -1.138100
 H         1.820157         0.491992         2.938147
 H         2.504275         3.102322         1.774973
 H         3.479142         1.791319         1.126518
 H         2.505384         1.791023        -1.659923
 H         0.029306        -1.206571         0.729282
 H         0.226869        -0.733543        -1.150261
 H         1.455151        -1.466361        -0.069711
