19
Iteration:  4106
 C        -1.101260         2.416496         0.073131
 C         0.208660         1.890044         0.640612
 O         0.419426         1.859165         2.107578
 C         1.504315         0.977469         1.852936
 C         2.522994         1.965997         1.130686
 C         1.542574         1.921606         0.057445
 O         1.956906         2.198686        -1.376475
 C         1.035747         0.587800         0.429179
 C         0.842244        -0.684642        -0.267925
 H        -1.933107         1.708403         0.342722
 H        -1.235750         3.406193         0.599735
 H        -1.119529         2.500574        -1.067497
 H         1.809979         0.363459         2.705701
 H         2.749982         2.889727         1.752180
 H         3.461626         1.456356         0.745159
 H         1.722610         3.156534        -1.440590
 H         0.115955        -1.222085         0.326661
 H         0.667043        -0.378159        -1.281554
 H         1.778662        -1.346656        -0.392565
