19
Iteration:   885
 C        -1.081209         2.286236        -0.089905
 C         0.171919         1.742621         0.549176
 O         0.360085         1.862357         2.026471
 C         1.567423         1.050466         1.871244
 C         2.548670         2.038756         1.182168
 C         1.726739         1.936267        -0.028945
 O         1.747771         2.490794        -1.252607
 C         1.013491         0.562886         0.474895
 C         0.846471        -0.806725        -0.100293
 H        -1.978158         1.747028         0.395215
 H        -1.127555         3.372093        -0.131090
 H        -1.100649         2.064272        -1.114223
 H         1.847844         0.436708         2.803897
 H         2.649518         3.039223         1.701212
 H         3.570820         1.634543         1.109098
 H         2.614960         2.157035        -1.644103
 H         0.056220        -1.430834         0.312826
 H         0.995081        -0.671151        -1.196329
 H         1.912221        -1.352977         0.062531
