19
Iteration:  4501
 C        -1.101373         2.319115         0.025398
 C         0.195810         1.870851         0.643922
 O         0.391140         1.894437         2.076856
 C         1.571095         1.005419         1.902476
 C         2.643003         1.906212         1.135237
 C         1.601735         1.881863        -0.046060
 O         1.914947         2.265045        -1.335301
 C         0.961619         0.569009         0.481380
 C         0.781950        -0.604500        -0.258856
 H        -1.907009         1.767772         0.548742
 H        -1.278448         3.320811         0.414498
 H        -0.969186         2.169969        -0.996711
 H         1.664878         0.262270         2.679061
 H         2.864109         2.871197         1.592555
 H         3.560169         1.432988         0.912696
 H         1.670613         3.220351        -1.426534
 H         0.071974        -1.333691         0.271747
 H         0.378665        -0.292071        -1.233579
 H         1.902209        -0.987508        -0.250350
