19
Iteration:  2439charge 0 multiplicity 1
 C        -1.079011         2.287186        -0.065961
 C         0.202704         1.730239         0.553474
 O         0.349232         1.958874         1.998843
 C         1.483231         1.102787         1.911767
 C         2.583836         1.989463         1.173572
 C         1.669617         1.784063        -0.007626
 O         1.680142         2.566094        -1.172238
 C         1.019871         0.491861         0.448263
 C         1.019776        -0.810838        -0.176520
 H        -1.976384         1.743976         0.091610
 H        -1.182320         3.373193         0.290232
 H        -0.890405         2.397522        -1.133102
 H         1.703776         0.583027         2.726209
 H         2.874592         2.979118         1.538010
 H         3.462386         1.311368         0.979766
 H         2.389657         2.095987        -1.689504
 H         0.513478        -1.590433         0.437221
 H         0.464565        -0.778297        -1.187320
 H         2.057457        -1.037676        -0.336601
