19
Iteration:  4214
 C        -0.971699         2.285966        -0.009132
 C         0.250697         1.859860         0.590267
 O         0.356316         1.884940         1.988236
 C         1.548458         0.946807         1.848554
 C         2.698429         1.890879         1.126225
 C         1.606111         1.961507        -0.000746
 O         1.788241         2.433475        -1.263801
 C         1.010993         0.543342         0.454883
 C         0.702720        -0.695335        -0.090251
 H        -1.936552         1.889853         0.378919
 H        -1.274538         3.455530        -0.005039
 H        -0.849325         1.976520        -1.102862
 H         1.799553         0.136383         2.568419
 H         2.918435         2.845066         1.672002
 H         3.605346         1.327850         0.842233
 H         2.054747         3.346987        -1.189726
 H        -0.001403        -1.357419         0.448824
 H         0.243546        -0.634631        -1.106371
 H         1.675839        -1.230537        -0.155146
