19
Iteration:   644
 C        -0.995179         2.128820        -0.198851
 C         0.219910         1.899103         0.623217
 O         0.365863         1.943230         2.100582
 C         1.568479         1.075530         1.946558
 C         2.581916         1.972177         1.270788
 C         1.626787         1.939135         0.019583
 O         1.697055         2.440732        -1.362459
 C         1.006443         0.618688         0.555445
 C         0.859076        -0.777753        -0.214923
 H        -1.937740         1.617886         0.115887
 H        -1.339074         3.156625        -0.274409
 H        -0.764028         1.792384        -1.221424
 H         1.724739         0.225968         2.724305
 H         2.971743         2.925551         1.819650
 H         3.387122         1.298045         0.875296
 H         2.606922         2.261368        -1.748210
 H         0.395763        -1.493208         0.350456
 H         0.334022        -0.703203        -1.172501
 H         1.893214        -1.113086        -0.312386
