19
Iteration:  3362
 C        -1.149459         2.153783         0.047439
 C         0.157791         1.943824         0.642199
 O         0.351133         2.045675         2.046246
 C         1.499765         1.059480         1.893452
 C         2.624083         1.975701         1.230321
 C         1.652228         1.912739        -0.023137
 O         1.924068         2.368073        -1.274762
 C         1.006147         0.591980         0.473276
 C         0.894714        -0.762131        -0.368021
 H        -1.853518         1.443871         0.571362
 H        -1.537265         3.182090         0.143711
 H        -1.162030         1.694301        -0.953508
 H         1.744739         0.479008         2.868377
 H         2.827399         2.874247         1.790942
 H         3.437288         1.279154         1.008321
 H         2.054309         1.614567        -1.873692
 H         0.069307        -1.329720        -0.065829
 H         0.645743        -0.648724        -1.456835
 H         1.847758        -1.327718        -0.139192
