19
Iteration:  3880
 C        -1.006191         2.471054        -0.079461
 C         0.131759         1.769741         0.729159
 O         0.333486         1.869481         2.195630
 C         1.552524         1.054420         1.929774
 C         2.513906         1.978189         1.148492
 C         1.581501         1.890544        -0.033746
 O         1.830640         2.440242        -1.365210
 C         1.110848         0.548552         0.442293
 C         0.946782        -0.860671        -0.273127
 H        -1.913956         1.902919         0.234252
 H        -1.106441         3.458632         0.318449
 H        -0.646571         2.520582        -1.104204
 H         1.894777         0.406085         2.774482
 H         2.472013         2.974570         1.554065
 H         3.530301         1.716586         1.048809
 H         1.436871         1.798391        -1.984322
 H         0.166491        -1.491235         0.081859
 H         0.454758        -0.646081        -1.224295
 H         1.810550        -1.447575        -0.357893
