19
Iteration:  2465charge 0 multiplicity 1
 C        -1.083610         2.360229         0.032110
 C         0.160111         1.846287         0.620377
 O         0.256556         1.803445         2.045264
 C         1.556079         0.984935         1.782401
 C         2.484510         2.041388         1.242256
 C         1.587102         2.017667        -0.018423
 O         1.911787         2.494520        -1.371886
 C         1.008706         0.558605         0.343823
 C         1.042030        -0.857266        -0.055730
 H        -2.053915         1.787099         0.257244
 H        -1.366639         3.313691         0.422140
 H        -0.995678         2.471150        -1.047578
 H         1.966551         0.352460         2.755503
 H         2.693665         2.960100         1.865544
 H         3.381639         1.462148         0.883915
 H         2.017438         1.552602        -1.684840
 H         0.640496        -1.539500         0.699771
 H         0.495736        -0.969346        -0.947506
 H         2.160562        -1.202703        -0.364368
