19
Iteration:  3589charge 0 multiplicity 1
 C        -1.056637         2.282949        -0.090589
 C         0.163542         1.759394         0.594711
 O         0.344116         1.779726         2.122009
 C         1.613274         1.074859         1.824153
 C         2.526575         2.143400         1.198755
 C         1.627916         1.963248         0.042203
 O         1.839913         2.296287        -1.239902
 C         1.107432         0.570926         0.479787
 C         0.809908        -0.629977        -0.237490
 H        -1.932522         1.887410         0.314766
 H        -1.039220         3.367860        -0.190734
 H        -1.111305         2.146059        -1.100024
 H         1.909240         0.287940         2.597649
 H         2.610313         3.160002         1.644112
 H         3.477334         1.749456         0.889782
 H         2.197661         1.486320        -1.686798
 H        -0.003230        -1.256995         0.402332
 H         0.507726        -0.351433        -1.288859
 H         1.633004        -1.303362        -0.443573
