19
Iteration:  2193charge 0 multiplicity 1
 C        -1.164749         2.269186         0.022199
 C         0.146615         1.802735         0.552523
 O         0.328601         1.821007         2.052891
 C         1.554149         0.980883         1.804634
 C         2.576758         2.007324         1.198621
 C         1.614026         2.014269        -0.030994
 O         1.862275         2.403454        -1.317230
 C         1.011250         0.686764         0.365932
 C         0.981214        -0.704003        -0.081800
 H        -1.947809         1.749356         0.704601
 H        -1.282287         3.384267        -0.033786
 H        -1.138624         1.823325        -0.922163
 H         1.828833         0.430778         2.771046
 H         2.768741         2.867470         1.888966
 H         3.521970         1.456350         1.011669
 H         2.328949         1.612093        -1.628788
 H         0.094205        -1.195193         0.344518
 H         1.014823        -0.719661        -1.207165
 H         1.818360        -1.309219         0.300975
