19
Iteration:  1541charge 0 multiplicity 1
 C        -1.010383         2.299086        -0.084467
 C         0.179955         1.767350         0.654747
 O         0.308068         1.805708         2.133734
 C         1.640415         1.098723         1.921941
 C         2.508667         2.094846         1.317357
 C         1.628105         1.934007         0.005634
 O         1.914116         2.332099        -1.466030
 C         1.032434         0.577779         0.445364
 C         0.731561        -0.672148        -0.193090
 H        -1.941248         1.811593         0.419767
 H        -1.031297         3.374883        -0.260044
 H        -0.971411         1.802769        -1.125324
 H         1.994968         0.603517         2.758364
 H         2.430850         3.156659         1.731722
 H         3.520916         1.811086         0.974411
 H         2.465422         1.563436        -1.787033
 H         0.131948        -1.329659         0.464921
 H         0.298183        -0.536710        -1.119327
 H         1.713267        -1.288780        -0.565519
