19
Iteration:   697charge 0 multiplicity 1
 C        -1.138302         2.293378         0.030164
 C         0.164493         1.781462         0.509016
 O         0.297246         1.852152         1.981371
 C         1.516551         1.115408         1.883765
 C         2.569979         2.027847         1.216889
 C         1.685963         2.000730        -0.011471
 O         1.864015         2.545253        -1.384383
 C         1.058912         0.514787         0.466830
 C         0.927733        -0.937430        -0.069658
 H        -1.955313         1.772844         0.529751
 H        -1.122082         3.352206         0.210152
 H        -1.407001         2.303683        -1.035059
 H         1.785783         0.484339         2.654889
 H         2.635366         3.044917         1.727397
 H         3.589331         1.582581         1.174155
 H         2.634860         1.924199        -1.593381
 H         0.038917        -1.378057         0.374998
 H         0.758430        -0.830071        -1.220005
 H         1.731721        -1.792489         0.291447
