19
Iteration:  1424charge 0 multiplicity 1
 C        -1.151795         2.338191         0.031435
 C         0.221960         1.836407         0.568282
 O         0.308127         1.937991         2.008089
 C         1.528589         1.097838         1.874803
 C         2.507336         2.004166         1.255254
 C         1.693328         1.927696        -0.055582
 O         1.874885         2.409625        -1.357098
 C         1.094686         0.536452         0.456011
 C         0.848809        -0.871129        -0.111909
 H        -1.854729         1.596133         0.254167
 H        -1.379206         3.274692         0.464872
 H        -0.959466         2.469478        -1.117822
 H         1.926387         0.446033         2.755348
 H         2.706277         2.983770         1.598244
 H         3.487369         1.476573         1.180640
 H         2.481037         1.853858        -1.857961
 H         0.047963        -1.450551         0.407411
 H         0.710903        -0.811573        -1.280638
 H         1.683659        -1.459039        -0.060853
