19
Iteration:   446charge 0 multiplicity 1
 C        -1.083856         2.288778        -0.059367
 C         0.247064         1.882256         0.610442
 O         0.296798         1.831686         1.998491
 C         1.590023         1.037940         1.869166
 C         2.515691         2.179781         1.298166
 C         1.663964         1.945267         0.009612
 O         1.795616         2.326895        -1.317338
 C         1.172069         0.563007         0.440059
 C         0.837986        -0.822079        -0.182459
 H        -1.901773         1.876359         0.455254
 H        -1.234550         3.353693        -0.151084
 H        -1.249650         2.010443        -1.118300
 H         1.685681         0.413695         2.702230
 H         2.675742         3.111590         1.789806
 H         3.468466         1.717823         1.168421
 H         2.554827         1.824688        -1.661178
 H         0.148230        -1.252964         0.598220
 H         0.139156        -0.677670        -1.051386
 H         1.618587        -1.444358        -0.478005
