19
Iteration:  3032charge 0 multiplicity 1
 C        -1.021599         2.353390        -0.170572
 C         0.201947         1.724999         0.629988
 O         0.322956         1.762780         2.052529
 C         1.559554         1.028465         1.838197
 C         2.555581         2.104939         1.306668
 C         1.675766         1.977124        -0.028972
 O         1.778959         2.485185        -1.374527
 C         1.156532         0.523748         0.453147
 C         0.757403        -0.830777        -0.063507
 H        -1.920115         1.828753         0.169631
 H        -1.067520         3.364684         0.104940
 H        -1.039358         2.264479        -1.238742
 H         1.993592         0.324372         2.513213
 H         2.465336         3.073960         1.872839
 H         3.578997         1.647957         1.145511
 H         2.688289         2.809730        -1.630515
 H         0.256747        -1.328594         0.762365
 H        -0.002752        -0.716886        -0.868191
 H         1.488930        -1.453436        -0.280729
