19
Iteration:  1259
 C        -1.023612         2.375521        -0.082184
 C         0.100599         1.700615         0.625066
 O         0.274452         1.843713         2.067591
 C         1.603958         1.048809         1.807006
 C         2.566665         2.098491         1.207468
 C         1.711922         1.912729        -0.056467
 O         1.796221         2.399223        -1.338000
 C         1.066057         0.600017         0.464106
 C         0.849702        -0.837019        -0.077079
 H        -1.818840         1.970196         0.424760
 H        -1.011358         3.401519         0.163699
 H        -1.212420         2.348106        -1.120344
 H         1.927593         0.489007         2.695384
 H         2.419227         3.002742         1.805787
 H         3.606977         1.840458         1.213919
 H         2.688976         2.147953        -1.744183
 H         0.041970        -1.363240         0.449741
 H         0.730752        -0.721393        -1.206657
 H         1.683064        -1.426378        -0.032730
