19
Iteration:   224
 C        -1.042338         2.157037        -0.099962
 C         0.173640         1.837703         0.620334
 O         0.392306         2.028250         2.086613
 C         1.514303         1.119204         1.920871
 C         2.547892         1.951486         1.126777
 C         1.618713         1.907232         0.037099
 O         1.817566         2.431781        -1.264370
 C         0.948879         0.519315         0.472521
 C         0.910706        -0.769784        -0.203014
 H        -1.954494         1.488081         0.111903
 H        -1.238129         3.288470        -0.120980
 H        -0.925342         2.105922        -1.208048
 H         1.901166         0.692390         2.907227
 H         2.741058         2.944767         1.426452
 H         3.360934         1.286672         0.945320
 H         2.604683         1.998944        -1.655073
 H         0.562874        -1.704847         0.554142
 H         0.273302        -0.646453        -1.117169
 H         1.945224        -1.102195        -0.506755
