19
Iteration:   977
 C        -1.118304         2.249314         0.085396
 C         0.205575         1.786031         0.545235
 O         0.288512         1.865139         1.977691
 C         1.530834         1.108129         1.915894
 C         2.551771         2.164980         1.224354
 C         1.624594         1.926269        -0.004904
 O         1.908939         2.296498        -1.298853
 C         1.010654         0.564409         0.416163
 C         0.859650        -0.730037        -0.220322
 H        -1.779751         1.607999         0.485019
 H        -1.213660         3.221681         0.503535
 H        -1.141718         2.347408        -1.035930
 H         1.826865         0.472111         2.712207
 H         2.720361         3.085485         1.778646
 H         3.535253         1.659924         1.022438
 H         2.713408         1.819181        -1.468561
 H         0.450116        -1.582381         0.369468
 H         0.446828        -0.652307        -1.209350
 H         1.994399        -1.024537        -0.583068
