19
Iteration:  2225
 C        -1.006653         2.468954         0.099276
 C         0.163910         1.700429         0.592015
 O         0.266619         1.805337         2.028719
 C         1.570935         1.096965         1.923023
 C         2.477904         2.212599         1.163888
 C         1.592798         1.870933        -0.050994
 O         1.796323         2.315030        -1.341153
 C         1.070041         0.478056         0.460776
 C         1.000887        -0.832280        -0.222792
 H        -2.060046         2.014963         0.266813
 H        -1.031595         3.579556         0.319647
 H        -1.033876         2.429452        -0.955522
 H         1.912304         0.702236         2.938321
 H         2.384355         3.215226         1.573183
 H         3.529002         1.929796         1.205104
 H         2.767458         2.183395        -1.501459
 H         0.223832        -1.496511         0.142814
 H         0.572537        -0.697815        -1.215606
 H         1.979855        -1.375577        -0.377686
