19
Iteration:  4101charge 0 multiplicity 1
 C        -1.096607         2.418874         0.063376
 C         0.152313         1.899385         0.674316
 O         0.402718         1.889263         2.067340
 C         1.539148         0.940050         1.856358
 C         2.526124         1.938912         1.137696
 C         1.533133         1.930897         0.017510
 O         1.920734         2.227904        -1.364490
 C         1.074426         0.597100         0.452466
 C         0.876791        -0.696193        -0.255554
 H        -1.898334         1.758323         0.331341
 H        -1.110254         3.357391         0.675629
 H        -0.905509         2.393960        -1.011555
 H         1.759913         0.368252         2.765749
 H         2.763684         2.810517         1.700793
 H         3.394762         1.393408         0.838864
 H         1.952028         3.191130        -1.491579
 H         0.102782        -1.236394         0.335493
 H         0.581547        -0.470029        -1.322956
 H         1.619770        -1.428652        -0.442080
