19
Iteration:  3567
 C        -1.061236         2.132626         0.085741
 C         0.267614         1.870458         0.649686
 O         0.337156         1.902629         2.017072
 C         1.561042         1.110077         1.974880
 C         2.525777         2.085150         1.311127
 C         1.726374         1.935612        -0.034662
 O         1.830553         2.343704        -1.364788
 C         1.075473         0.591264         0.392077
 C         0.748773        -0.725403        -0.335092
 H        -1.808564         1.570789         0.531084
 H        -1.249904         3.130687        -0.040291
 H        -1.075921         1.936082        -0.915898
 H         1.616025         0.444605         2.887087
 H         2.466121         3.072006         1.828460
 H         3.517784         1.716250         1.170158
 H         2.463798         1.680835        -1.662675
 H        -0.200880        -1.307856         0.080651
 H         0.587074        -0.393115        -1.399299
 H         1.575183        -1.414223        -0.459807
