19
Iteration:  1322charge 0 multiplicity 1
 C        -1.173487         2.231258        -0.095204
 C         0.218075         1.775521         0.623686
 O         0.410209         2.029222         1.987111
 C         1.443136         1.045988         1.988255
 C         2.595967         1.926886         1.216340
 C         1.761304         1.930100        -0.026983
 O         1.770524         2.502256        -1.305061
 C         1.035394         0.569994         0.408205
 C         0.914585        -0.823494        -0.164564
 H        -2.209606         1.856785         0.563109
 H        -1.233262         3.371870         0.043253
 H        -1.186565         1.815309        -1.043380
 H         1.465969         0.668456         2.911266
 H         3.080277         2.790586         1.801030
 H         3.337391         1.155849         1.055485
 H         2.471021         2.077123        -1.870338
 H         0.258589        -1.451932         0.521681
 H         0.345701        -0.906227        -1.173510
 H         1.936475        -1.374442        -0.141233
