19
Iteration:  3857
 C        -1.000679         2.509504         0.000813
 C         0.147392         1.780218         0.590869
 O         0.342726         1.762222         2.046027
 C         1.582543         1.027594         1.808770
 C         2.495503         2.102547         1.162126
 C         1.608401         1.890309        -0.021908
 O         1.880843         2.354317        -1.254220
 C         0.991379         0.558788         0.445877
 C         0.937898        -0.837177        -0.151694
 H        -1.967267         2.006798         0.391242
 H        -1.005784         3.476958         0.410387
 H        -0.836776         2.608046        -1.107171
 H         1.960737         0.452636         2.665334
 H         2.590644         3.046221         1.640963
 H         3.500141         1.754882         0.935880
 H         0.982286         2.427794        -1.673486
 H         0.405902        -1.661218         0.316204
 H         0.394325        -0.899085        -1.097781
 H         1.949546        -1.098032        -0.187481
