19
Iteration:  1830charge 0 multiplicity 1
 C        -0.924734         2.372080        -0.054154
 C         0.234699         1.827282         0.607748
 O         0.301772         1.782247         2.054896
 C         1.515622         1.029186         1.846338
 C         2.525493         2.117252         1.136270
 C         1.573166         1.987174        -0.002646
 O         1.775567         2.341511        -1.364915
 C         1.164616         0.509276         0.471564
 C         0.788453        -0.794975        -0.040916
 H        -1.724555         1.696625        -0.039862
 H        -1.387490         3.318450         0.370573
 H        -0.671597         2.640513        -1.198062
 H         1.793866         0.512412         2.765615
 H         2.464875         3.149945         1.597607
 H         3.650677         1.833184         1.051841
 H         2.696808         2.185580        -1.560257
 H        -0.069679        -1.319035         0.426501
 H         0.575653        -0.672159        -1.148703
 H         1.597452        -1.529690         0.103796
