19
Iteration:  1034
 C        -1.036481         2.197437        -0.052593
 C         0.230161         1.800369         0.552518
 O         0.323666         1.951381         1.980326
 C         1.539702         1.087618         1.873150
 C         2.602763         1.994373         1.153633
 C         1.586207         1.952255         0.016510
 O         1.830422         2.438120        -1.207304
 C         0.943226         0.504585         0.540004
 C         0.897028        -0.718590        -0.174298
 H        -1.847769         1.585589         0.385420
 H        -1.419172         3.221282         0.035040
 H        -1.028269         1.921161        -1.093411
 H         1.864972         0.444022         2.721477
 H         2.765432         2.882282         1.767024
 H         3.657978         1.610331         0.898622
 H         2.425713         1.864629        -1.753846
 H         0.157776        -1.447148         0.267151
 H         0.511489        -0.472169        -1.293666
 H         1.986489        -1.280911        -0.224176
