19
Iteration:   421charge 0 multiplicity 1
 C        -1.120612         2.147362         0.008628
 C         0.205359         1.742836         0.576715
 O         0.326692         1.964351         2.001935
 C         1.533459         1.120770         1.866435
 C         2.498191         2.028556         1.178952
 C         1.667584         1.920710        -0.022634
 O         1.976124         2.478431        -1.257691
 C         1.022846         0.533530         0.470493
 C         0.803721        -0.800089        -0.156237
 H        -2.063273         1.764401         0.507822
 H        -1.152542         3.300130         0.076736
 H        -1.361235         2.106766        -1.049318
 H         1.739560         0.606336         2.771679
 H         2.774998         3.154145         1.476182
 H         3.560462         1.544345         1.025995
 H         2.578464         1.818559        -1.709274
 H         0.419846        -1.506171         0.518080
 H         0.122369        -0.740939        -1.059122
 H         1.907102        -1.082216        -0.552355
