19
Iteration:  3513
 C        -1.158180         2.118558        -0.071927
 C         0.177082         1.824469         0.692647
 O         0.414875         1.973973         2.120748
 C         1.528092         1.088484         1.856207
 C         2.571568         1.916878         1.075703
 C         1.577807         1.964319         0.007559
 O         1.936661         2.509449        -1.301988
 C         0.987614         0.613307         0.431829
 C         0.838792        -0.773927        -0.177532
 H        -1.945770         1.313593         0.068859
 H        -1.703485         3.006645         0.150715
 H        -0.935506         2.134568        -1.138342
 H         1.791071         0.454181         2.789845
 H         3.090546         2.699009         1.644268
 H         3.449562         1.290748         0.967572
 H         2.839848         2.182363        -1.378783
 H        -0.108521        -1.311047         0.273338
 H         0.657808        -0.732167        -1.278535
 H         1.662773        -1.413691         0.010025
