19
Iteration:  1232
 C        -0.917278         2.305998        -0.104927
 C         0.250938         1.840283         0.618101
 O         0.331540         1.903364         2.019080
 C         1.513499         1.119601         1.948835
 C         2.538216         2.025325         1.188257
 C         1.600715         1.931851         0.014311
 O         1.662353         2.366400        -1.263603
 C         1.166736         0.570686         0.487738
 C         0.843253        -0.835724        -0.232943
 H        -1.713147         1.480537         0.234534
 H        -1.322817         3.352572         0.188204
 H        -0.809098         2.324256        -1.244705
 H         1.729137         0.706784         2.954865
 H         2.680752         3.014025         1.699754
 H         3.526150         1.481125         1.081286
 H         2.296891         1.762251        -1.755545
 H         0.050602        -1.389261         0.320276
 H         0.609802        -0.585990        -1.257509
 H         1.787111        -1.584526        -0.357513
