19
Iteration:   685charge 0 multiplicity 1
 C        -1.200298         2.301317        -0.048928
 C         0.190744         1.696013         0.506780
 O         0.340734         1.924005         1.996374
 C         1.533135         1.059540         1.899868
 C         2.576742         2.010026         1.201896
 C         1.608755         1.964926        -0.058065
 O         1.872355         2.543346        -1.286757
 C         1.100708         0.492329         0.491675
 C         0.887890        -0.854864        -0.051341
 H        -1.989071         1.864847         0.505843
 H        -1.216515         3.348169         0.218838
 H        -1.271118         2.073656        -1.135677
 H         1.749631         0.732084         2.798755
 H         2.820943         2.927864         1.751958
 H         3.471594         1.426475         0.943831
 H         2.526676         2.134129        -1.855065
 H        -0.003757        -1.445681         0.258200
 H         0.865022        -0.811706        -1.225354
 H         1.958415        -1.383841         0.061991
