19
Iteration:  4263charge 0 multiplicity 1
 C        -0.940721         2.412385         0.034082
 C         0.171474         1.793907         0.657319
 O         0.376597         1.854763         2.083431
 C         1.530248         0.958107         1.825717
 C         2.567059         2.072499         1.102310
 C         1.636526         1.858490         0.015257
 O         1.877223         2.371348        -1.353070
 C         0.981847         0.515061         0.412715
 C         0.764365        -0.779364        -0.151087
 H        -2.001677         2.137826         0.451888
 H        -1.079305         3.441773         0.368980
 H        -0.898852         2.303820        -1.061373
 H         1.739076         0.253812         2.652706
 H         2.569835         3.049314         1.703836
 H         3.565968         1.751325         0.722530
 H         2.336364         3.266926        -1.289875
 H         0.082071        -1.369470         0.456272
 H         0.181226        -0.637356        -1.084850
 H         1.614202        -1.430696        -0.383034
