19
Iteration:  1559charge 0 multiplicity 1
 C        -1.099387         2.190420        -0.027442
 C         0.220082         1.859610         0.633339
 O         0.340103         1.875726         2.049576
 C         1.472683         1.020305         1.859951
 C         2.583823         2.108140         1.181160
 C         1.618728         1.992298        -0.020406
 O         1.900199         2.257860        -1.288771
 C         1.126724         0.624483         0.456236
 C         0.804676        -0.669388        -0.195692
 H        -2.021792         1.707320         0.398203
 H        -1.155229         3.330919         0.025806
 H        -1.090475         2.038089        -1.046940
 H         1.765402         0.317450         2.723510
 H         2.656803         3.049907         1.763322
 H         3.508313         1.575972         1.115376
 H         2.486349         1.565607        -1.694977
 H         0.093658        -1.144189         0.468757
 H         0.257682        -0.419129        -1.148236
 H         1.625794        -1.298655        -0.441729
