19
Iteration:  4978charge 0 multiplicity 1
 C        -1.112935         2.474022         0.032106
 C         0.181258         1.882259         0.684569
 O         0.420122         1.748415         2.111720
 C         1.581252         0.959034         1.821847
 C         2.527566         2.009569         1.181101
 C         1.676421         1.882771        -0.001522
 O         1.813219         2.296752        -1.374067
 C         1.025825         0.568430         0.432143
 C         0.854429        -0.732249        -0.232031
 H        -1.997204         1.986298         0.538784
 H        -1.151617         3.583509         0.209669
 H        -1.314581         2.274810        -1.041307
 H         2.033873         0.346141         2.588642
 H         2.671892         2.985128         1.695712
 H         3.515111         1.587124         0.986480
 H         1.840154         3.256369        -1.287068
 H         0.153598        -1.339385         0.173079
 H         0.536177        -0.428672        -1.204406
 H         1.872281        -1.147010        -0.499209
