19
Iteration:  3082charge 0 multiplicity 1
 C        -1.149563         2.268690        -0.029726
 C         0.144919         1.706133         0.568658
 O         0.300201         1.917657         2.025601
 C         1.536234         1.063268         1.843749
 C         2.619175         1.986267         1.164873
 C         1.582538         1.957499        -0.084096
 O         1.919366         2.542552        -1.251940
 C         1.098563         0.506076         0.435098
 C         0.841804        -0.820892        -0.076743
 H        -2.056173         1.646409         0.075893
 H        -1.247270         3.309757         0.463711
 H        -1.061954         2.448428        -1.174795
 H         1.747765         0.536044         2.873164
 H         2.941247         2.915287         1.693684
 H         3.524253         1.434327         0.846014
 H         2.849620         2.373824        -1.493897
 H         0.237275        -1.469456         0.641889
 H         0.214180        -0.813552        -0.983195
 H         1.946074        -1.374951        -0.204949
