19
Iteration:  1398
 C        -1.021587         2.285543        -0.023943
 C         0.263731         1.767791         0.592132
 O         0.255335         1.895324         1.958833
 C         1.558062         1.059548         1.907371
 C         2.595668         2.136053         1.225185
 C         1.672324         1.905029         0.017393
 O         1.782080         2.244264        -1.292769
 C         1.110619         0.583576         0.517467
 C         0.757764        -0.683857        -0.220900
 H        -1.805157         1.435711         0.292526
 H        -1.064515         3.271418         0.508724
 H        -0.887876         2.536496        -1.034393
 H         1.766706         0.428651         2.678543
 H         2.414252         3.221870         1.531546
 H         3.668026         2.038465         1.050565
 H         2.543609         1.777305        -1.681867
 H         0.005391        -1.251054         0.340283
 H         0.535603        -0.569483        -1.200586
 H         1.677479        -1.401177        -0.338425
