19
Iteration:  1538charge 0 multiplicity 1
 O        -3.511548         4.815320         1.090779
 C        -3.183648         3.464387         0.908490
 C        -2.786827         2.645765         2.137209
 C        -2.429335         1.225636         1.709391
 C        -1.354931         1.681054         0.633786
 C         0.023111         1.329815         0.741894
 C         0.466273         0.489536        -0.419196
 O        -0.247347        -0.351607        -0.923812
 C        -1.668718         3.110606         1.018415
 H        -3.212239         5.246059         0.239876
 H        -3.792047         2.897172         0.197552
 H        -2.835669         2.939825         3.213453
 H        -1.851513         0.798431         2.450151
 H        -3.303532         0.582863         1.513968
 H        -1.699235         1.156536        -0.312835
 H         0.790053         2.141439         0.777680
 H         0.336875         0.560458         1.546414
 H         1.517539         0.567216        -0.842076
 H        -0.947199         3.917020         0.981700
