19
Iteration:  2747
 O        -3.833626         4.517892         0.781026
 C        -3.310230         3.238260         1.053086
 C        -2.380391         3.037664         2.157998
 C        -2.056838         1.547644         2.393498
 C        -1.623639         1.487557         0.818629
 C        -0.187489         0.915953         0.830766
 C         0.480476         0.763103        -0.491535
 O         0.213278        -0.091797        -1.330472
 C        -1.900868         2.980789         0.740571
 H        -4.009499         4.647625        -0.185018
 H        -3.953964         2.432991         0.886234
 H        -2.269696         3.890131         2.794846
 H        -1.263792         1.489113         2.990466
 H        -2.810523         0.832399         2.880913
 H        -2.332975         0.855618         0.306709
 H         0.499779         1.577635         1.502138
 H        -0.292930        -0.074093         1.124559
 H         1.047954         1.689355        -0.811458
 H        -1.275433         3.775331         0.436970
