19
Iteration:   529
 O        -3.389024         4.900351         1.681781
 C        -2.903640         3.887318         0.811727
 C        -3.161260         2.603683         1.551481
 C        -2.953147         1.516400         0.464449
 C        -1.343856         1.929821         0.408112
 C        -0.307978         0.918289         1.053956
 C         0.195160        -0.282457         0.220056
 O         0.764910        -0.192611        -0.877973
 C        -1.724832         3.042898         1.401338
 H        -2.604648         5.357758         1.990558
 H        -3.034912         4.038295        -0.222705
 H        -3.894481         2.740334         2.370449
 H        -3.301788         0.441858         0.643854
 H        -3.381660         1.736188        -0.598723
 H        -1.052020         2.087030        -0.631338
 H         0.607050         1.543475         0.882584
 H        -0.461811         0.694132         2.131416
 H         0.128148        -1.286764         0.757597
 H        -0.934085         3.523590         2.091100
