19
Iteration:  2582
 O        -3.485430         4.291166         0.409653
 C        -3.328263         3.005032         0.856071
 C        -2.391340         3.018103         2.045766
 C        -1.949339         1.670288         2.656663
 C        -1.623282         1.183535         1.219406
 C        -0.040279         0.815230         1.059817
 C         0.238285         0.563933        -0.425605
 O        -0.231364         1.102134        -1.430875
 C        -1.886846         2.598741         0.630117
 H        -3.550073         4.400027        -0.523527
 H        -4.164583         2.387562         0.932359
 H        -2.080047         4.033420         2.480923
 H        -1.155242         1.764278         3.287160
 H        -2.774864         1.206967         3.341520
 H        -2.136993         0.326822         0.882822
 H         0.403085         1.818898         1.297047
 H         0.268760        -0.035545         1.701640
 H         1.220998        -0.031875        -0.498190
 H        -1.136363         3.192405         0.087843
