19
Iteration:   314
 O        -3.427889         4.748370         1.717518
 C        -2.708645         3.915528         0.836146
 C        -3.186083         2.461829         1.005902
 C        -2.366017         1.479338         0.213831
 C        -1.082256         2.161696         0.687399
 C        -0.009172         1.130652         1.119195
 C         0.367606         0.089612         0.089168
 O        -0.305267        -0.566931        -0.658068
 C        -1.921325         2.929038         1.696195
 H        -3.534226         5.630287         1.277140
 H        -2.436163         4.398586        -0.185654
 H        -4.230201         2.428435         1.408895
 H        -2.516735         0.534561         0.625578
 H        -2.573203         1.487887        -0.829114
 H        -0.576792         2.851093        -0.089813
 H         0.971335         1.600591         1.348844
 H        -0.397866         0.791901         2.056625
 H         1.531505        -0.018441         0.033379
 H        -1.979002         2.950553         2.848337
