19
Iteration:  2556
 O        -3.624566         4.249064         0.351699
 C        -3.303487         3.026212         0.962136
 C        -2.382011         3.169019         2.157972
 C        -1.898518         1.683850         2.610807
 C        -1.638270         1.279700         1.193775
 C        -0.124313         0.684860         0.945647
 C         0.275941         0.451663        -0.450147
 O        -0.058677         1.150956        -1.384702
 C        -1.898600         2.669181         0.651862
 H        -3.726220         4.222213        -0.583026
 H        -4.052684         2.227765         0.982344
 H        -2.100296         4.033485         2.643386
 H        -1.058814         1.839276         3.367570
 H        -2.561724         1.070080         3.183282
 H        -2.267588         0.441765         0.987777
 H         0.507481         1.429179         1.472737
 H        -0.126318        -0.280907         1.425241
 H         0.883978        -0.484116        -0.564629
 H        -1.276375         3.151280        -0.093348
