19
Iteration:  1562charge 0 multiplicity 1
 O        -3.512244         4.811658         1.068872
 C        -3.286449         3.450754         0.838738
 C        -2.762406         2.789980         2.139949
 C        -2.412268         1.200586         1.825588
 C        -1.387599         1.680169         0.702271
 C         0.113097         1.154903         0.817117
 C         0.570488         0.448581        -0.524265
 O        -0.200823        -0.330265        -1.023297
 C        -1.755367         3.150318         1.071927
 H        -2.971757         5.297544         0.408143
 H        -3.849633         2.796895         0.276099
 H        -2.836117         3.347808         3.039804
 H        -2.032697         0.606553         2.645267
 H        -3.322130         0.854973         1.475712
 H        -1.825962         1.237527        -0.177373
 H         0.686000         2.013636         1.039120
 H         0.067866         0.413630         1.712177
 H         1.398179         0.790935        -1.246346
 H        -1.199872         4.018975         0.836035
