19
Iteration:  1805charge 0 multiplicity 1
 O        -3.250452         4.496806         0.304766
 C        -3.071209         3.135518         0.801391
 C        -2.204642         3.060160         2.048196
 C        -2.230388         1.598293         2.578628
 C        -1.863817         1.088815         1.157031
 C        -0.496195         0.241056         1.014656
 C         0.214420         0.645789        -0.367123
 O        -0.157816         1.450827        -1.221316
 C        -1.638416         2.531826         0.752055
 H        -2.850912         4.682289        -0.544384
 H        -3.981181         2.461505         0.671474
 H        -1.937202         3.881073         2.677339
 H        -1.394118         1.241234         3.361038
 H        -3.159038         1.377114         3.134784
 H        -2.645700         0.633935         0.530316
 H         0.053637         0.393034         1.924833
 H        -0.647494        -0.826627         0.784425
 H         1.148119         0.094620        -0.677057
 H        -0.904517         2.920088         0.149356
