19
Iteration:  3257charge 0 multiplicity 1
 O        -3.086749         4.863744         0.903569
 C        -3.158835         3.430630         0.930614
 C        -2.364756         2.918801         2.127212
 C        -2.532244         1.359682         2.316763
 C        -1.798108         1.136279         0.801578
 C        -0.428089         0.609002         0.915657
 C         0.418041         0.539512        -0.323682
 O         0.010628         0.655216        -1.473585
 C        -1.799318         2.715564         0.788554
 H        -2.938083         5.196566        -0.047605
 H        -4.174620         2.993070         0.584236
 H        -2.029892         3.507430         2.921429
 H        -1.964943         0.997603         3.073760
 H        -3.589946         0.996959         2.285262
 H        -2.419200         0.633245         0.073943
 H         0.170536         1.303274         1.623054
 H        -0.392320        -0.533214         1.236527
 H         1.479648         0.409539        -0.279159
 H        -1.286430         3.296356         0.141752
