19
Iteration:  1488charge 0 multiplicity 1
 O        -3.695005         4.745952         1.331426
 C        -3.194038         3.504615         0.899531
 C        -2.734144         2.698303         2.061828
 C        -2.358162         1.285456         1.576334
 C        -1.386819         1.798857         0.527691
 C         0.098403         1.470852         0.560359
 C         0.483543         0.119267        -0.156793
 O        -0.217123        -0.434585        -0.976490
 C        -1.642671         3.215866         1.039192
 H        -3.361998         5.307454         0.627815
 H        -3.762194         3.080378         0.021274
 H        -3.032948         3.090882         2.996471
 H        -1.866178         0.698215         2.495698
 H        -3.000362         0.552977         1.064583
 H        -1.816320         1.589273        -0.522334
 H         0.798861         2.125112         0.009250
 H         0.578593         1.398396         1.525775
 H         1.421548        -0.346867         0.096346
 H        -0.909078         3.984740         1.110858
