19
Iteration:   293charge 0 multiplicity 1
 O        -3.329767         4.754731         1.862800
 C        -2.706558         3.875174         0.855884
 C        -3.285398         2.476215         0.947889
 C        -2.430187         1.450886         0.074098
 C        -1.146752         2.126387         0.590547
 C        -0.058655         1.166429         1.170403
 C         0.411141         0.132495         0.137020
 O        -0.293420        -0.547190        -0.568632
 C        -1.817987         2.973746         1.586582
 H        -4.055853         5.132295         1.373151
 H        -2.385996         4.239292        -0.186405
 H        -4.192243         2.184866         1.538868
 H        -2.490680         0.434953         0.359605
 H        -2.635381         1.467373        -1.017804
 H        -0.598035         2.795497        -0.172126
 H         0.769963         1.717046         1.768692
 H        -0.493655         0.424982         1.918219
 H         1.515107        -0.083816         0.095886
 H        -1.388899         3.527822         2.491394
