19
Iteration:   619charge 0 multiplicity 1
 O        -3.279818         5.043781         1.476524
 C        -2.828437         3.834299         0.861498
 C        -3.182535         2.550658         1.563319
 C        -2.943734         1.347576         0.617465
 C        -1.430089         1.783928         0.580468
 C        -0.325965         0.794557         1.107513
 C         0.021848        -0.047067        -0.058341
 O         0.952318        -0.041697        -0.860616
 C        -1.752932         3.018455         1.515197
 H        -2.832232         5.783454         1.045016
 H        -2.912190         3.817646        -0.187942
 H        -3.893959         2.622922         2.378803
 H        -3.193851         0.479313         1.193387
 H        -3.495223         1.424060        -0.401024
 H        -1.212086         2.101718        -0.473632
 H         0.555165         1.291990         1.502286
 H        -0.851457         0.149922         1.898504
 H        -0.763885        -0.846573        -0.134342
 H        -1.151577         3.353769         2.287511
