19
Iteration:  4628charge 0 multiplicity 1
 O        -3.096717         4.867361         2.081186
 C        -2.296189         4.085372         1.181327
 C        -3.130384         2.981832         0.694034
 C        -2.435880         2.183479        -0.384911
 C        -1.246928         1.796367         0.572071
 C        -1.299356         0.273948         0.908730
 C        -0.316407        -0.491220         0.088998
 O         0.808540        -0.010741        -0.212779
 C        -1.788204         2.683591         1.590422
 H        -2.500830         5.255732         2.736897
 H        -1.658691         4.811078         0.514521
 H        -4.116790         2.802454         1.073742
 H        -2.940385         1.276793        -0.897473
 H        -2.043623         2.856706        -1.191641
 H        -0.309964         2.115522         0.223607
 H        -1.027788         0.020093         1.919126
 H        -2.279627        -0.235285         0.703063
 H        -0.637828        -1.600791        -0.162894
 H        -2.007899         2.432754         2.616700
