19
Iteration:  2862charge 0 multiplicity 1
 O        -3.741707         4.740753         1.033221
 C        -3.384166         3.342306         1.095497
 C        -2.553285         2.983383         2.237731
 C        -2.274632         1.483634         2.315150
 C        -1.749179         1.498195         0.835877
 C        -0.109205         1.128096         0.570841
 C         0.161860         0.579134        -0.857647
 O         0.879207        -0.388442        -1.075059
 C        -1.982065         2.994046         0.720179
 H        -3.456142         4.910519         0.101721
 H        -4.277419         2.820010         0.782921
 H        -2.453992         3.704424         3.115108
 H        -1.388826         1.224803         2.998624
 H        -2.971393         0.833004         2.806246
 H        -2.374243         0.939774         0.146791
 H         0.319676         2.094021         0.743843
 H         0.227228         0.323660         1.417603
 H        -0.174979         1.233615        -1.687733
 H        -1.276777         3.752768         0.419277
