19
Iteration:  3295
 O        -3.139898         4.841699         1.007941
 C        -3.046944         3.405266         0.936021
 C        -2.460025         2.785271         2.195632
 C        -2.556119         1.284150         2.022436
 C        -1.705879         1.322802         0.731257
 C        -0.316326         0.863492         0.942930
 C         0.416442         0.622881        -0.342732
 O        -0.186216         0.300326        -1.379780
 C        -1.684939         2.857119         0.800462
 H        -3.406275         5.205078         0.138116
 H        -3.855466         3.016317         0.403507
 H        -2.303626         3.289416         3.196064
 H        -2.007562         0.719903         2.900518
 H        -3.589138         0.964192         1.936887
 H        -2.080901         0.914248        -0.243286
 H         0.215730         1.466144         1.723423
 H        -0.402593        -0.164294         1.555907
 H         1.510831         0.604279        -0.145801
 H        -0.946306         3.626855         0.227688
