19
Iteration:  2623charge 0 multiplicity 1
 O        -3.539464         4.354652         0.468120
 C        -3.240334         3.056537         0.904023
 C        -2.216667         3.052232         1.997147
 C        -2.139472         1.581955         2.508375
 C        -1.528812         1.149538         1.156239
 C        -0.010094         0.861897         1.117194
 C         0.367075         0.830457        -0.393363
 O        -0.452096         0.831605        -1.303889
 C        -1.860925         2.600617         0.580523
 H        -3.558913         4.271322        -0.531362
 H        -4.085002         2.319022         0.888221
 H        -1.837171         3.965925         2.434792
 H        -1.414057         1.458259         3.359721
 H        -2.994960         0.935408         2.856981
 H        -2.131016         0.366000         0.595749
 H         0.585122         1.755621         1.549512
 H         0.341014        -0.033380         1.613194
 H         1.436432         0.716720        -0.636978
 H        -1.277790         3.277430        -0.033245
