19
Iteration:  4793
 O        -3.231946         4.881068         1.839863
 C        -2.215976         4.051810         1.305110
 C        -2.842578         2.930443         0.447934
 C        -1.807620         2.201601        -0.353524
 C        -1.219647         1.713008         0.995499
 C        -1.211792         0.187236         1.126023
 C         0.005870        -0.270899         0.294476
 O         0.024992         0.019216        -0.842251
 C        -2.254391         2.606697         1.822236
 H        -2.856263         5.271718         2.687735
 H        -1.251617         4.679281         1.197074
 H        -3.827526         2.975340        -0.027481
 H        -2.176673         1.326915        -0.993516
 H        -1.128704         2.683400        -1.063688
 H        -0.102728         1.985771         1.278413
 H        -0.990809        -0.012951         2.167893
 H        -2.257793        -0.238037         0.886065
 H         0.881382        -0.712935         0.771944
 H        -2.754040         2.197322         2.691496
