19
Iteration:  4505charge 0 multiplicity 1
 O        -3.093111         5.071842         2.052717
 C        -2.285157         4.059418         1.349662
 C        -3.184105         3.127257         0.506641
 C        -2.484073         2.008293        -0.318903
 C        -1.380631         1.874569         0.697842
 C        -0.769890         0.544684         1.008938
 C        -0.200888        -0.171382        -0.188354
 O         0.894578        -0.710665        -0.285286
 C        -2.341046         2.572771         1.655855
 H        -2.791063         5.200254         2.950829
 H        -1.268674         4.504691         0.958091
 H        -4.260494         3.298334         0.791052
 H        -3.105539         1.037165        -0.183747
 H        -2.178587         2.223474        -1.420751
 H        -0.559218         2.514267         0.492917
 H         0.051907         0.676795         1.758711
 H        -1.642327         0.019468         1.510926
 H        -0.862292        -0.025127        -1.065001
 H        -2.751922         2.165317         2.618438
