19
Iteration:  1244
 O        -3.654752         4.763367         1.577571
 C        -3.135936         3.610195         0.931239
 C        -2.760713         2.512161         1.915085
 C        -2.475772         1.179528         1.129632
 C        -1.361823         1.946646         0.344930
 C         0.163111         1.489434         0.640372
 C         0.466729         0.346813        -0.350374
 O        -0.168676        -0.671617        -0.463056
 C        -1.718779         3.222242         0.982061
 H        -3.109013         5.510616         1.264414
 H        -3.754757         3.310545         0.056055
 H        -2.988237         2.522369         2.951883
 H        -2.139004         0.284903         1.623866
 H        -3.234560         0.882746         0.412928
 H        -1.453055         2.139218        -0.707990
 H         0.928663         2.289277         0.694683
 H         0.089155         1.050965         1.628274
 H         1.275283         0.497592        -0.966555
 H        -0.908474         3.930700         1.316688
