19
Iteration:  2743charge 0 multiplicity 1
 O        -3.829402         4.527558         0.759645
 C        -3.317308         3.244907         1.048092
 C        -2.397992         2.983824         2.169701
 C        -2.050639         1.574453         2.421413
 C        -1.626499         1.496738         0.832727
 C        -0.203445         0.918850         0.847693
 C         0.481290         0.759992        -0.503994
 O         0.210612        -0.071389        -1.346694
 C        -1.892539         2.972649         0.729374
 H        -3.985334         4.676385        -0.180868
 H        -3.997458         2.307495         0.832604
 H        -2.191479         3.894143         2.875167
 H        -1.107977         1.530504         3.180687
 H        -2.683675         0.845563         2.825024
 H        -2.395251         0.865717         0.272069
 H         0.425019         1.476799         1.499194
 H        -0.257706        -0.155692         1.197927
 H         1.134267         1.609387        -0.789708
 H        -1.290740         3.821493         0.310744
