19
Iteration:  2037
 O        -3.807781         4.681627         0.986139
 C        -3.334831         3.372933         1.076032
 C        -2.469924         3.059279         2.293326
 C        -2.104639         1.520679         2.294484
 C        -1.758462         1.480942         0.787383
 C        -0.379255         0.982958         0.459396
 C        -0.012014         0.331895        -0.830498
 O         1.089185        -0.121279        -1.015002
 C        -1.919771         3.120185         0.819818
 H        -3.720580         4.893352         0.047982
 H        -4.154888         2.651193         0.697817
 H        -2.379535         3.742957         3.100538
 H        -1.337742         1.257302         3.119928
 H        -2.897265         0.898781         2.528579
 H        -2.501385         0.982944         0.116076
 H         0.360483         1.748953         0.977482
 H        -0.196871         0.102895         1.211903
 H        -0.990112         0.069359        -1.423420
 H        -1.241923         3.853977         0.472324
