19
Iteration:   389charge 0 multiplicity 1
 O        -3.457308         4.798773         1.531206
 C        -2.771345         3.800532         0.819962
 C        -3.111873         2.332516         1.228405
 C        -2.386313         1.398092         0.267844
 C        -1.063390         2.148427         0.646263
 C        -0.159633         1.121765         1.178645
 C         0.287861         0.004963         0.181832
 O        -0.266690        -0.335952        -0.839533
 C        -1.772097         3.120774         1.687355
 H        -2.773984         5.151204         2.093800
 H        -2.577369         4.045438        -0.245408
 H        -4.039407         2.324723         1.879111
 H        -2.383299         0.361784         0.491267
 H        -2.651486         1.441918        -0.765907
 H        -0.503498         2.562666        -0.174329
 H         0.683600         1.471399         1.670543
 H        -0.692736         0.557606         1.955931
 H         1.357616        -0.245468         0.322448
 H        -1.461334         3.385013         2.785385
