19
Iteration:   861
 O        -3.383083         4.806990         1.944093
 C        -3.078531         3.817925         0.984728
 C        -3.065541         2.422378         1.618013
 C        -2.782878         1.375592         0.485382
 C        -1.422227         2.084372         0.183420
 C        -0.098352         1.405576         0.549512
 C        -0.063785        -0.029349        -0.070445
 O         0.865104        -0.763618        -0.196022
 C        -1.780699         3.255822         1.141975
 H        -2.940138         5.575502         1.527730
 H        -3.483059         4.067284         0.029407
 H        -3.466514         2.401049         2.580315
 H        -2.479353         0.401493         0.880914
 H        -3.446362         1.164053        -0.462463
 H        -1.488949         2.511134        -0.839812
 H         0.676247         1.894875        -0.024699
 H         0.171477         1.380536         1.587916
 H        -1.056210        -0.183728        -0.557252
 H        -1.000290         3.673199         1.841080
