19
Iteration:  1859charge 0 multiplicity 1
 O        -3.253347         4.548523         0.452284
 C        -3.137796         3.203526         0.843428
 C        -2.320731         3.029297         2.084438
 C        -2.263185         1.572581         2.515549
 C        -1.771479         1.164376         1.066867
 C        -0.410867         0.461542         0.951762
 C         0.079172         0.413228        -0.383629
 O         0.047991         1.281986        -1.213775
 C        -1.697587         2.592715         0.722192
 H        -3.415846         4.639441        -0.482155
 H        -3.887091         2.429965         0.513193
 H        -2.174897         3.828658         2.792482
 H        -1.277127         1.393281         3.130826
 H        -3.134496         1.103281         2.984345
 H        -2.416331         0.680687         0.418920
 H         0.251939         1.062608         1.687003
 H        -0.344700        -0.649606         1.182605
 H         0.632963        -0.537776        -0.610781
 H        -1.006498         3.148572         0.129650
