19
Iteration:  1373
 O        -3.583533         4.776858         1.721528
 C        -3.248858         3.486071         1.046290
 C        -2.661642         2.430320         1.906865
 C        -2.292576         1.261258         1.125412
 C        -1.402642         2.089030         0.126577
 C         0.078210         1.601905         0.308566
 C         0.241030         0.077144         0.246065
 O         0.002273        -0.665178        -0.668621
 C        -1.788149         3.389768         0.884923
 H        -3.306589         5.379563         1.018459
 H        -3.996983         3.169797         0.344679
 H        -3.110454         2.420259         2.882705
 H        -1.707192         0.517139         1.627317
 H        -3.191183         0.778835         0.543505
 H        -1.672357         1.831479        -0.940919
 H         0.791129         1.952960        -0.525280
 H         0.513726         2.054221         1.304277
 H         0.524638        -0.481215         1.239379
 H        -0.986533         4.140206         1.141347
