19
Iteration:  4806
 O        -3.230931         4.885079         1.825183
 C        -2.301535         4.001946         1.266109
 C        -2.840897         2.993446         0.406354
 C        -1.675984         2.243225        -0.326816
 C        -1.177752         1.777686         1.075743
 C        -1.126855         0.271504         1.238350
 C        -0.064474        -0.248617         0.279139
 O        -0.033374        -0.035737        -0.927724
 C        -2.283007         2.437088         1.804180
 H        -2.896407         5.191578         2.654582
 H        -1.255455         4.359050         0.852189
 H        -3.898484         3.094631         0.257974
 H        -2.024456         1.432366        -0.977944
 H        -1.015636         3.019775        -0.834102
 H        -0.161530         2.213799         1.271826
 H        -0.990187        -0.044201         2.262329
 H        -2.047348        -0.250698         0.863368
 H         0.661174        -0.953165         0.785495
 H        -2.827297         2.229436         2.795173
