19
Iteration:  2064
 O        -3.880181         4.644761         1.120072
 C        -3.360696         3.379131         1.100789
 C        -2.387719         3.090626         2.150898
 C        -2.196718         1.618056         2.289853
 C        -1.754766         1.504233         0.814091
 C        -0.376247         0.908170         0.497915
 C         0.078429         0.416635        -0.904778
 O         1.103551        -0.277218        -0.975272
 C        -1.920085         3.120226         0.739274
 H        -4.134807         4.845374         0.199877
 H        -4.144828         2.675422         0.777756
 H        -2.049294         3.754750         2.990155
 H        -1.522555         1.417121         3.075212
 H        -3.147244         0.921235         2.689147
 H        -2.452281         1.084825         0.122062
 H         0.313293         1.627404         0.826175
 H        -0.087814         0.140276         1.306773
 H        -0.486636         0.864499        -1.710378
 H        -1.154455         3.926905         0.340829
