19
Iteration:  3441
 O        -3.433655         4.800876         1.342974
 C        -3.084260         3.557603         0.947156
 C        -2.620486         2.619292         2.037076
 C        -2.459232         1.184727         1.543488
 C        -1.455088         1.772404         0.568600
 C         0.004305         1.220546         0.737808
 C         0.341103         0.070188        -0.215092
 O        -0.315576        -0.115055        -1.209396
 C        -1.653799         3.251370         1.054727
 H        -3.148912         5.476285         0.685618
 H        -3.638127         3.101457         0.080725
 H        -2.628762         2.800526         3.134606
 H        -2.050680         0.642939         2.373933
 H        -3.473459         0.762113         1.299853
 H        -1.640239         1.386468        -0.523208
 H         0.718761         2.057069         0.590527
 H         0.305798         0.904980         1.861235
 H         1.247456        -0.569533         0.209446
 H        -0.921048         3.944427         1.253168
