19
Iteration:   833
 O        -3.367588         4.843178         1.887322
 C        -3.044932         3.819608         0.976180
 C        -3.016639         2.443717         1.575992
 C        -2.817040         1.369936         0.612176
 C        -1.427915         1.991597         0.064057
 C        -0.264536         1.257502         0.653028
 C        -0.090128         0.085188        -0.103026
 O         0.932914        -0.597204        -0.231334
 C        -1.716480         3.191078         1.101645
 H        -2.515051         5.359527         1.858443
 H        -3.538057         3.993072        -0.033894
 H        -3.283788         2.352954         2.675308
 H        -2.615019         0.401027         1.172123
 H        -3.485268         1.133334        -0.151480
 H        -1.436441         2.267292        -0.991656
 H         0.745856         1.786652         0.719881
 H        -0.543033         0.966746         1.724895
 H        -1.071256        -0.057847        -0.660577
 H        -1.072746         3.536357         1.861101
