19
Iteration:  4864charge 0 multiplicity 1
 O        -3.519943         4.761790         1.910895
 C        -2.362287         4.073721         1.400721
 C        -2.694624         3.143626         0.248407
 C        -1.483050         2.473720        -0.278755
 C        -0.967874         1.995855         1.133670
 C        -0.776672         0.395847         1.333820
 C        -0.259098        -0.566818         0.211897
 O        -0.235590        -0.358492        -0.994181
 C        -2.337703         2.504712         1.623319
 H        -3.380254         5.022060         2.876127
 H        -1.492337         4.734617         1.446524
 H        -3.714512         3.071904        -0.184916
 H        -1.573395         1.679485        -1.020568
 H        -0.918666         3.267033        -0.833164
 H        -0.056593         2.374764         1.403176
 H        -0.039965         0.295436         2.173629
 H        -1.644298        -0.135442         1.678445
 H         0.106406        -1.489808         0.572765
 H        -2.965485         2.065800         2.347106
