19
Iteration:  2386charge 0 multiplicity 1
 O        -3.641314         4.368492         0.465222
 C        -3.276468         3.110559         1.039379
 C        -2.179686         3.074613         2.036282
 C        -2.046235         1.621729         2.553429
 C        -1.668759         1.127046         1.118793
 C        -0.141187         0.942052         1.032837
 C         0.328106         0.506034        -0.352804
 O         0.031565         1.080937        -1.359521
 C        -2.067047         2.482436         0.486120
 H        -3.883909         4.098882        -0.451846
 H        -4.153539         2.439009         1.247642
 H        -1.613591         3.906165         2.388706
 H        -1.131097         1.487012         3.120956
 H        -2.825319         1.058001         3.011953
 H        -2.293682         0.220582         0.901494
 H         0.256576         1.997170         1.237327
 H         0.248090         0.162810         1.791581
 H         0.999224        -0.371211        -0.389010
 H        -1.570576         3.059105        -0.356251
