19
Iteration:   774charge 0 multiplicity 1
 O        -3.445906         5.127068         1.762118
 C        -2.974530         3.951863         1.036926
 C        -3.118653         2.588060         1.706134
 C        -3.088760         1.475449         0.673262
 C        -1.529506         1.891071         0.261876
 C        -0.370858         0.962193         0.723257
 C         0.141859        -0.153593        -0.257485
 O         1.284621        -0.555659        -0.458153
 C        -1.708708         2.988634         1.276099
 H        -3.366522         5.853601         1.139032
 H        -3.392628         4.023266         0.079969
 H        -3.543550         2.466413         2.694411
 H        -3.014708         0.472272         1.088973
 H        -3.703368         1.486917        -0.271559
 H        -1.233915         2.290725        -0.806275
 H         0.347692         1.733018         0.724511
 H        -0.454216         0.765584         1.759692
 H        -0.654191        -0.690712        -0.869721
 H        -0.903933         3.593501         1.788001
