19
Iteration:  4044charge 0 multiplicity 1
 O        -3.137851         4.991097         1.747801
 C        -2.634134         3.922932         0.857117
 C        -3.243506         2.605031         1.325867
 C        -2.834929         1.541644         0.423821
 C        -1.267800         1.838696         0.577100
 C        -0.564791         0.604779         1.171149
 C         0.039434        -0.304581         0.068280
 O         0.540182         0.075447        -1.000557
 C        -1.692465         2.983138         1.546066
 H        -2.600908         5.837778         1.765345
 H        -2.630030         4.168345        -0.193518
 H        -3.996422         2.511064         2.049369
 H        -3.144046         0.534899         0.542025
 H        -3.137622         1.785099        -0.726811
 H        -0.827312         2.146923        -0.305753
 H         0.328803         1.039598         1.772700
 H        -1.238740         0.013700         1.880438
 H         0.262544        -1.343787         0.335857
 H        -1.382478         3.543000         2.498531
