19
Iteration:  2327charge 0 multiplicity 1
 O        -3.656147         4.357739         0.472211
 C        -3.223375         2.966620         0.805695
 C        -2.313396         3.033163         1.994934
 C        -2.070758         1.648361         2.615764
 C        -1.542963         1.232650         1.120581
 C        -0.073878         0.842565         1.041074
 C         0.324646         0.612704        -0.383008
 O        -0.311534         0.935514        -1.356876
 C        -1.715656         2.690764         0.722079
 H        -3.766739         4.352157        -0.471408
 H        -4.059315         2.179649         0.586372
 H        -2.402718         4.020597         2.507639
 H        -1.243341         1.557767         3.271932
 H        -2.851638         1.014866         3.086879
 H        -2.163885         0.332042         0.703945
 H         0.559183         1.580894         1.486901
 H         0.259626        -0.079757         1.575328
 H         1.377240         0.387065        -0.464208
 H        -1.188818         3.256607         0.029511
