19
Iteration:  4189
 O        -3.501170         4.645899         1.892928
 C        -2.679491         3.955159         1.033692
 C        -2.997261         2.489760         1.006678
 C        -2.311075         1.869125        -0.079352
 C        -0.927089         2.248212         0.624225
 C        -0.239555         0.962089         1.054814
 C         0.245365         0.055932        -0.082375
 O        -0.500660        -0.727334        -0.541904
 C        -1.728405         2.949957         1.736682
 H        -2.929071         5.278375         2.308615
 H        -2.142998         4.468121         0.268864
 H        -3.969889         2.144861         1.386838
 H        -2.495590         0.718704        -0.156918
 H        -2.477465         2.196773        -1.148240
 H        -0.278413         2.860161         0.051876
 H         0.806949         1.090715         1.454345
 H        -1.079272         0.410235         1.601388
 H         1.356427         0.131977        -0.405375
 H        -1.465332         3.208172         2.716555
