19
Iteration:  3249
 O        -3.115479         4.878388         0.878348
 C        -3.137557         3.430330         0.976259
 C        -2.393086         2.940354         2.128085
 C        -2.552313         1.369693         2.354330
 C        -1.827802         1.132473         0.837737
 C        -0.423245         0.544065         0.911461
 C         0.398609         0.528648        -0.357158
 O         0.049218         0.738359        -1.483021
 C        -1.804477         2.677726         0.698489
 H        -2.772782         5.159187        -0.028541
 H        -4.082582         2.999455         0.787730
 H        -2.062743         3.677137         2.859342
 H        -1.939296         1.088974         3.234396
 H        -3.543396         1.041830         2.437995
 H        -2.465633         0.537003         0.216576
 H         0.296668         1.005239         1.648054
 H        -0.286433        -0.591803         1.127326
 H         1.493522         0.224672        -0.051802
 H        -1.026808         3.133869         0.021512
