19
Iteration:  4958charge 0 multiplicity 1
 O        -3.614633         4.432475         1.931035
 C        -2.490273         3.997624         1.295675
 C        -2.604538         2.972886         0.185859
 C        -1.224360         2.767090        -0.321901
 C        -0.777837         2.116524         1.112175
 C        -0.676009         0.493030         1.366085
 C        -0.667442        -0.514113         0.282117
 O        -0.448840        -0.365450        -0.929913
 C        -2.092619         2.624203         1.608609
 H        -3.422293         4.431038         2.869344
 H        -1.769523         4.839095         0.947753
 H        -3.552670         2.574657        -0.125188
 H        -0.992143         1.990171        -1.078255
 H        -0.702070         3.760839        -0.634025
 H         0.137662         2.500006         1.723078
 H         0.280482         0.141215         1.835040
 H        -1.479496         0.182488         2.133402
 H        -0.813307        -1.588895         0.597824
 H        -2.627247         2.190699         2.571714
