19
Iteration:  1630charge 0 multiplicity 1
 O        -3.546826         4.778458         1.013093
 C        -3.228257         3.434102         0.944755
 C        -2.606814         2.880013         2.118914
 C        -2.480565         1.390906         2.132343
 C        -1.527496         1.527680         0.760891
 C        -0.118615         1.013334         0.866786
 C         0.527363         0.325459        -0.346614
 O         0.010470        -0.089269        -1.383365
 C        -1.708880         3.118773         0.832646
 H        -3.720367         5.015361         0.104579
 H        -3.885068         2.733238         0.344469
 H        -2.445409         3.533393         3.002955
 H        -1.725261         0.965475         2.880417
 H        -3.273867         0.702507         1.888689
 H        -1.927225         1.255099        -0.282273
 H         0.508161         1.712426         1.476249
 H        -0.226904         0.141118         1.656152
 H         1.634709         0.240988        -0.405038
 H        -0.975448         3.985201         0.719355
