19
Iteration:   848
 O        -3.371756         4.868200         1.944315
 C        -3.071636         3.866320         0.948851
 C        -2.982080         2.435976         1.560017
 C        -2.768596         1.224540         0.517380
 C        -1.482341         2.034248         0.186953
 C        -0.117525         1.400215         0.631829
 C        -0.137930         0.049749        -0.134906
 O         0.862552        -0.654614        -0.194144
 C        -1.732665         3.137281         1.114710
 H        -2.800987         5.663305         1.896032
 H        -3.508031         4.021312        -0.068072
 H        -3.417897         2.291012         2.536615
 H        -2.749735         0.238681         0.881335
 H        -3.559710         1.323973        -0.300418
 H        -1.267504         2.207836        -0.850348
 H         0.703855         2.134998         0.442382
 H        -0.089851         1.209673         1.740770
 H        -1.085547        -0.416859        -0.513167
 H        -0.867981         3.702009         1.571989
