19
Iteration:  2561
 O        -3.587192         4.287217         0.350598
 C        -3.309661         2.988298         0.969764
 C        -2.373619         3.149975         2.136364
 C        -1.911161         1.679427         2.630837
 C        -1.603313         1.256803         1.169759
 C        -0.146053         0.747008         0.960337
 C         0.290065         0.485045        -0.441219
 O        -0.097420         1.141016        -1.388938
 C        -1.892565         2.624660         0.678287
 H        -3.695163         4.171812        -0.646255
 H        -4.089374         2.192322         0.808445
 H        -2.185367         4.126199         2.767114
 H        -1.058248         1.952235         3.223873
 H        -2.614272         0.998745         3.275305
 H        -2.357016         0.418341         0.927225
 H         0.567735         1.472340         1.428937
 H        -0.088439        -0.286586         1.415464
 H         0.843291        -0.524897        -0.510195
 H        -1.353465         3.078135        -0.166109
