19
Iteration:  2930charge 0 multiplicity 1
 O        -3.777484         4.715066         1.141109
 C        -3.346023         3.351391         1.094095
 C        -2.314435         3.033368         2.144763
 C        -2.175159         1.550105         2.222891
 C        -1.851590         1.553430         0.704667
 C        -0.470659         0.894989         0.608472
 C         0.007738         0.340783        -0.735546
 O         1.123655        -0.074004        -1.003601
 C        -1.871824         3.117110         0.672517
 H        -4.338053         4.896952         0.328727
 H        -4.044539         2.492985         0.987704
 H        -2.418533         3.781723         2.811533
 H        -1.327211         1.146947         2.949159
 H        -3.000115         0.972107         2.559997
 H        -2.451209         0.975222        -0.019510
 H         0.363742         1.324181         1.092981
 H        -0.410140        -0.304643         1.196101
 H        -0.745182         0.229649        -1.581895
 H        -1.203596         3.735393         0.124758
