19
Iteration:   283charge 0 multiplicity 1
 O        -3.326512         4.804641         1.845779
 C        -2.760509         3.890421         0.903344
 C        -3.266754         2.452407         0.982926
 C        -2.470228         1.507698         0.060838
 C        -1.060194         2.056812         0.501294
 C        -0.079197         1.077504         1.153276
 C         0.452128         0.149017         0.199941
 O        -0.286731        -0.508782        -0.527303
 C        -1.797861         2.943507         1.505380
 H        -4.261944         4.900191         1.631584
 H        -2.730977         4.453307        -0.046553
 H        -4.201876         2.345115         1.596260
 H        -2.620096         0.477411         0.349789
 H        -2.633399         1.682514        -1.058347
 H        -0.559561         2.603459        -0.336662
 H         0.862833         1.621435         1.610654
 H        -0.721988         0.643197         1.990310
 H         1.547007         0.132002         0.132883
 H        -1.410521         3.056961         2.574122
