19
Iteration:  2557charge 0 multiplicity 1
 O        -3.616729         4.255654         0.350213
 C        -3.308368         3.014556         0.964817
 C        -2.380866         3.171506         2.157445
 C        -1.896537         1.680858         2.613636
 C        -1.637739         1.275265         1.188325
 C        -0.126129         0.693769         0.946015
 C         0.278843         0.458836        -0.448253
 O        -0.066273         1.149155        -1.384733
 C        -1.896267         2.661811         0.654058
 H        -3.722364         4.223571        -0.593135
 H        -4.021550         2.249713         0.949440
 H        -2.118194         4.025927         2.658399
 H        -1.098694         1.859160         3.327280
 H        -2.571996         1.046024         3.213553
 H        -2.254803         0.462732         1.002266
 H         0.524305         1.458295         1.473860
 H        -0.128397        -0.277681         1.407756
 H         0.877869        -0.505840        -0.545091
 H        -1.294716         3.126051        -0.096472
