19
Iteration:  3662
 O        -3.521146         4.718249         2.067764
 C        -3.050933         3.779624         1.114729
 C        -2.782010         2.398290         1.659255
 C        -2.639350         1.383132         0.487723
 C        -1.252070         2.258916         0.120504
 C         0.110254         1.436804         0.368218
 C         0.111084         0.145228        -0.424688
 O         0.006475        -1.019960         0.069012
 C        -1.605542         3.296947         1.088700
 H        -3.316584         5.649653         1.757323
 H        -3.520433         3.983530         0.110182
 H        -2.938499         2.149069         2.716457
 H        -2.596810         0.375532         0.990496
 H        -3.559783         1.360418        -0.199250
 H        -1.134333         2.676174        -0.928982
 H         0.872229         2.141087         0.035931
 H         0.234078         1.311092         1.494097
 H        -0.001138         0.330199        -1.428995
 H        -0.833096         4.017536         1.543413
