19
Iteration:   364
 O        -3.592693         4.808894         1.413931
 C        -2.713160         3.854665         0.932622
 C        -3.208575         2.450025         1.262723
 C        -2.442139         1.595271         0.206798
 C        -1.000618         2.068913         0.698235
 C         0.022833         1.054611         1.123112
 C         0.393182         0.046117         0.089801
 O        -0.334497        -0.421157        -0.745380
 C        -1.806321         2.899357         1.743978
 H        -3.146778         5.408792         2.009169
 H        -2.345966         4.093017        -0.029539
 H        -3.926001         2.330769         2.029251
 H        -2.643734         0.466436         0.345755
 H        -2.664172         1.805379        -0.892003
 H        -0.419967         2.612456        -0.008728
 H         0.948512         1.542415         1.500542
 H        -0.329520         0.419366         2.053320
 H         1.505262        -0.248148         0.157599
 H        -1.439475         3.318474         2.654891
