19
Iteration:  4060
 O        -3.149563         4.995607         1.778969
 C        -2.795529         3.945625         0.960914
 C        -3.256574         2.720306         1.324064
 C        -2.785006         1.609088         0.229097
 C        -1.297811         1.831330         0.586044
 C        -0.427669         0.621037         1.120606
 C         0.213285        -0.329313         0.145694
 O         0.420329        -0.027892        -0.984288
 C        -1.748332         2.977032         1.528051
 H        -2.346135         5.592662         1.802657
 H        -2.712671         4.366687        -0.088526
 H        -4.136624         2.639983         2.039934
 H        -3.136702         0.592539         0.631123
 H        -3.114262         1.700801        -0.747664
 H        -0.651042         2.271303        -0.308974
 H         0.402400         0.893084         1.741707
 H        -0.972745        -0.032618         1.781586
 H         0.292804        -1.415959         0.557265
 H        -1.101053         3.010681         2.348958
