19
Iteration:  1027
 O        -3.586388         4.717732         1.860112
 C        -3.080886         3.693539         1.001406
 C        -2.815525         2.467556         1.767789
 C        -2.678882         1.315790         0.765414
 C        -1.489288         2.007076         0.095763
 C        -0.070205         1.537612         0.454629
 C         0.453680         0.276096        -0.330039
 O         0.161836        -0.873994        -0.055509
 C        -1.568228         3.249698         1.025046
 H        -3.221411         5.547124         1.450274
 H        -3.633255         3.723251         0.001737
 H        -3.114406         2.543073         2.858853
 H        -2.370408         0.314070         1.248386
 H        -3.618751         1.247690         0.146482
 H        -1.463718         2.316187        -0.938680
 H         0.685032         2.412900         0.435078
 H        -0.069062         1.039666         1.422907
 H         1.104540         0.506229        -1.201609
 H        -0.846010         3.841523         1.583799
