19
Iteration:  3374
 O        -3.400631         4.890084         1.142744
 C        -3.030184         3.545053         0.954696
 C        -2.818094         2.796252         2.213780
 C        -2.447088         1.286859         1.847689
 C        -1.582340         1.640765         0.683634
 C        -0.171545         1.026469         0.775245
 C         0.467250         0.303470        -0.460515
 O        -0.110444        -0.228844        -1.430042
 C        -1.619695         3.114148         1.204001
 H        -2.984732         5.491170         0.480308
 H        -3.610564         3.197845         0.095856
 H        -3.143188         3.058266         3.189450
 H        -1.706595         0.877847         2.571292
 H        -3.261508         0.561178         1.606753
 H        -2.099992         1.674470        -0.352918
 H         0.564790         1.698136         1.256718
 H        -0.242244         0.028044         1.427486
 H         1.525378         0.116183        -0.296025
 H        -0.783053         3.754240         1.176189
