19
Iteration:  3527
 O        -3.598105         4.774889         1.718478
 C        -3.054795         3.691517         1.016054
 C        -2.752004         2.478570         1.890300
 C        -2.408726         1.272743         1.054164
 C        -1.287869         2.121173         0.250783
 C         0.044839         1.451927         0.404863
 C         0.355192        -0.072288        -0.003726
 O        -0.334777        -0.658805        -0.846452
 C        -1.548461         3.361983         1.219793
 H        -3.590620         5.481956         1.103736
 H        -3.560923         3.511299         0.071663
 H        -3.105655         2.740936         2.948105
 H        -1.874338         0.518993         1.634207
 H        -3.243385         0.713862         0.641765
 H        -1.646049         2.331167        -0.741212
 H         0.741302         2.111604        -0.120352
 H         0.266823         1.497157         1.499314
 H         1.164131        -0.625467         0.477528
 H        -0.749820         3.767765         1.757252
