19
Iteration:  2491charge 0 multiplicity 1
 O        -3.931838         4.214785         0.680016
 C        -3.331993         3.021143         0.959253
 C        -2.193972         3.178596         1.890293
 C        -1.870199         1.854655         2.521996
 C        -1.652004         1.312582         1.060795
 C        -0.354777         0.516401         0.931097
 C         0.271341         0.322249        -0.371229
 O         0.256868         1.153614        -1.273658
 C        -1.748194         2.825685         0.549294
 H        -4.369865         4.072656        -0.202219
 H        -4.025568         2.250235         1.043190
 H        -2.063389         4.120429         2.401992
 H        -0.942273         1.652042         3.080507
 H        -2.699408         1.348684         3.144193
 H        -2.484685         0.833257         0.625422
 H         0.502961         1.093199         1.538293
 H        -0.436945        -0.499425         1.348947
 H         0.879751        -0.680425        -0.374596
 H        -1.336475         3.164996        -0.436434
