19
Iteration:  2297
 O        -3.714043         4.286895         0.334537
 C        -3.158613         3.051135         0.919827
 C        -2.453422         3.012977         2.180321
 C        -2.031114         1.648381         2.625783
 C        -1.526680         1.344043         1.147746
 C        -0.146846         0.731073         0.989685
 C         0.405470         0.743943        -0.440020
 O        -0.311944         0.715303        -1.455074
 C        -1.664951         2.849636         0.798428
 H        -3.443397         4.297843        -0.625458
 H        -3.798854         2.187217         0.606171
 H        -2.621305         3.994906         2.816581
 H        -1.208454         1.732114         3.293894
 H        -2.706754         0.913774         3.109129
 H        -2.238473         0.648771         0.569373
 H         0.638683         1.122085         1.748299
 H        -0.218752        -0.440999         1.139491
 H         1.560939         1.013863        -0.514786
 H        -0.985911         3.529761         0.284031
