19
Iteration:  3903charge 0 multiplicity 1
 O        -2.988391         5.022786         1.550782
 C        -2.641470         3.912514         0.883507
 C        -3.277471         2.701370         1.496583
 C        -3.189939         1.459286         0.709633
 C        -1.559977         1.718954         0.571684
 C        -0.427713         0.696228         0.942220
 C        -0.030068        -0.064507        -0.242948
 O         1.022653         0.037637        -0.771294
 C        -1.749082         2.830573         1.591910
 H        -2.186530         5.592046         1.711308
 H        -2.516610         3.859481        -0.194624
 H        -4.034936         2.699055         2.281840
 H        -3.676331         0.617590         1.247067
 H        -3.644296         1.462696        -0.242802
 H        -1.449375         2.045036        -0.569853
 H         0.369815         1.101710         1.528125
 H        -0.963275        -0.043573         1.532794
 H        -0.906980        -0.772676        -0.520278
 H        -1.315085         3.024339         2.533120
