19
Iteration:  4820
 O        -3.216142         4.875264         1.814503
 C        -2.315980         3.921544         1.346567
 C        -2.926301         2.913895         0.353486
 C        -1.642878         2.361561        -0.260653
 C        -1.051454         1.841428         1.145126
 C        -1.023078         0.321886         1.267261
 C        -0.128726        -0.332952         0.265335
 O        -0.082226        -0.101843        -0.973821
 C        -2.370291         2.532863         1.689632
 H        -2.921073         5.206064         2.718268
 H        -1.348864         4.408023         1.138764
 H        -3.904966         2.955561        -0.151649
 H        -1.771608         1.546778        -0.929642
 H        -0.928876         3.078387        -0.783249
 H        -0.199078         2.300786         1.506030
 H        -0.708219        -0.072913         2.266137
 H        -2.032186         0.040245         1.112259
 H         0.681269        -1.125865         0.624416
 H        -2.921895         2.160299         2.571777
