19
Iteration:  4994
 O        -3.692331         4.576838         1.707829
 C        -2.434859         3.955181         1.382779
 C        -2.579851         2.892508         0.312948
 C        -1.246047         2.493322        -0.293903
 C        -0.739577         2.072923         1.248116
 C        -0.560307         0.512108         1.416723
 C        -0.643243        -0.348033         0.188575
 O        -0.557479        -0.252663        -1.054482
 C        -2.074240         2.530898         1.728794
 H        -3.714780         5.028750         2.574042
 H        -1.595692         4.752354         1.271038
 H        -3.586110         2.511474         0.024169
 H        -1.342357         1.735214        -1.054604
 H        -0.685884         3.377087        -0.749475
 H         0.101773         2.749934         1.826049
 H         0.453565         0.193643         1.691874
 H        -1.265774         0.033877         2.239544
 H        -0.747244        -1.390935         0.633548
 H        -2.638358         2.098887         2.478097
