19
Iteration:   414
 O        -3.466226         4.874184         1.686495
 C        -2.888556         3.845555         0.831315
 C        -3.145291         2.392994         1.200540
 C        -2.502012         1.427519         0.275687
 C        -1.045261         1.994904         0.489702
 C        -0.073302         1.056974         1.264218
 C         0.334145        -0.060698         0.295276
 O        -0.194603        -0.157931        -0.831632
 C        -1.702157         3.000632         1.453849
 H        -2.746435         5.523566         1.810013
 H        -3.031679         4.080139        -0.276839
 H        -4.009661         2.172949         1.838676
 H        -2.551034         0.477095         0.776209
 H        -2.848540         1.214152        -0.725437
 H        -0.401151         2.332678        -0.383576
 H         0.764653         1.541691         1.804645
 H        -0.544327         0.479263         1.992606
 H         1.048074        -0.843813         0.601561
 H        -1.180601         3.263406         2.364487
