19
Iteration:  3359charge 0 multiplicity 1
 O        -3.367325         4.879902         1.156261
 C        -3.062825         3.533597         0.925022
 C        -2.763941         2.740430         2.147624
 C        -2.546191         1.274446         1.922991
 C        -1.527578         1.656751         0.686445
 C        -0.213387         0.896768         0.752620
 C         0.474018         0.359698        -0.439406
 O        -0.116367        -0.139555        -1.391417
 C        -1.645195         3.140687         1.084912
 H        -2.749513         5.335790         0.618858
 H        -3.548290         2.962524         0.174802
 H        -2.715149         3.294237         3.114939
 H        -1.978037         0.999098         2.855356
 H        -3.389472         0.666287         1.971086
 H        -1.922239         1.378992        -0.236803
 H         0.612391         1.539801         1.171862
 H        -0.279297         0.024431         1.481002
 H         1.614790         0.379076        -0.539203
 H        -0.827700         3.939847         1.363816
