19
Iteration:  4466charge 0 multiplicity 1
 O        -3.114589         4.950631         2.017100
 C        -2.415445         4.059474         1.178346
 C        -3.323365         2.940423         0.713050
 C        -2.350537         2.200574        -0.316516
 C        -1.292222         2.012958         0.737564
 C        -0.764001         0.642273         0.992649
 C        -0.116873        -0.053957        -0.234189
 O         0.721198        -0.942482        -0.232757
 C        -2.257632         2.626873         1.719194
 H        -2.364108         5.186764         2.652057
 H        -1.704974         4.374522         0.462046
 H        -4.367672         2.716745         0.824765
 H        -2.648468         1.394714        -0.963986
 H        -1.927741         2.826897        -1.050110
 H        -0.407316         2.752868         0.584867
 H        -0.134903         0.563796         1.871969
 H        -1.354210        -0.249985         1.225385
 H        -0.549888         0.315871        -1.222934
 H        -2.313895         2.414786         2.824532
