19
Iteration:  3035
 O        -3.327462         4.721392         0.791670
 C        -3.163197         3.364798         1.004332
 C        -2.238670         2.988795         2.109213
 C        -2.346597         1.477224         2.445596
 C        -1.931849         1.148686         1.013171
 C        -0.535098         0.677817         0.826184
 C        -0.171941         0.543635        -0.659551
 O         0.919017         0.719763        -1.161583
 C        -1.930057         2.620509         0.573380
 H        -3.829648         5.057694         0.023523
 H        -4.128833         2.826002         1.108679
 H        -1.851383         3.800513         2.633980
 H        -1.752189         1.118035         3.189838
 H        -3.403482         1.097268         2.584152
 H        -2.518346         0.501719         0.390871
 H         0.137246         1.415419         1.441375
 H        -0.409059        -0.454465         1.291995
 H        -1.009290         0.238107        -1.372214
 H        -1.184254         3.101047         0.056625
