19
Iteration:  2524
 O        -3.949371         4.227126         0.497719
 C        -3.279789         3.077720         0.955148
 C        -2.217750         3.230957         2.033293
 C        -1.960919         1.797031         2.600376
 C        -1.610431         1.262999         1.178299
 C        -0.213013         0.550629         0.906568
 C         0.250420         0.372091        -0.432117
 O         0.135805         1.154931        -1.353275
 C        -1.714221         2.736377         0.647467
 H        -3.973520         4.257260        -0.498272
 H        -3.855793         2.234541         1.054167
 H        -2.016706         4.123472         2.527126
 H        -1.072885         1.728369         3.247004
 H        -2.896556         1.296433         3.046083
 H        -2.379435         0.640731         0.809186
 H         0.531291         0.924675         1.731283
 H        -0.275152        -0.449709         1.329344
 H         0.764051        -0.606877        -0.782041
 H        -1.199109         3.031731        -0.278393
