19
Iteration:  4756charge 0 multiplicity 1
 O        -3.084544         4.868628         1.962004
 C        -2.202985         4.050421         1.277788
 C        -2.937581         3.016415         0.429985
 C        -2.090587         2.155513        -0.375423
 C        -1.359524         1.696464         0.880879
 C        -1.258922         0.229463         1.025603
 C         0.071345        -0.252461         0.384932
 O         0.318661        -0.034306        -0.761299
 C        -2.256683         2.590819         1.739076
 H        -2.604490         5.098982         2.801115
 H        -1.300686         4.481082         0.972211
 H        -3.933117         3.351208         0.158905
 H        -2.773395         1.381609        -0.631330
 H        -1.550581         2.526615        -1.242119
 H        -0.257843         2.115226         0.945099
 H        -1.148293         0.037476         2.142618
 H        -2.100701        -0.357690         0.680080
 H         0.753930        -0.613014         1.108832
 H        -2.726252         2.386097         2.712650
