19
Iteration:  4412
 O        -3.482011         4.699596         2.132959
 C        -2.484832         4.180928         1.162382
 C        -3.065343         2.848294         0.824156
 C        -2.340162         2.274146        -0.370476
 C        -1.027093         2.088662         0.584975
 C        -0.881378         0.637966         0.812543
 C        -0.001295        -0.001705        -0.222719
 O         0.424290        -1.155055        -0.078193
 C        -1.816731         2.908630         1.676991
 H        -2.960593         5.401798         2.596287
 H        -2.081243         4.838733         0.382455
 H        -4.090040         2.694498         1.145137
 H        -2.647283         1.270407        -0.584355
 H        -2.298276         2.938210        -1.257876
 H        -0.088915         2.583354         0.174360
 H        -0.480808         0.362526         1.827265
 H        -1.844184         0.104361         0.712989
 H         0.375541         0.640272        -1.045557
 H        -1.875329         2.764851         2.805300
