19
Iteration:  4822charge 0 multiplicity 1
 O        -3.218752         4.872808         1.825804
 C        -2.313710         3.948515         1.339134
 C        -2.923834         2.908840         0.337735
 C        -1.626906         2.371395        -0.268949
 C        -1.044661         1.857206         1.146653
 C        -1.019273         0.332427         1.258214
 C        -0.121905        -0.358221         0.256384
 O        -0.094456        -0.110716        -0.974925
 C        -2.385692         2.525044         1.717490
 H        -2.978336         5.219576         2.699987
 H        -1.339890         4.319305         1.182434
 H        -3.889044         2.890578        -0.233157
 H        -1.737964         1.496744        -0.924094
 H        -0.994076         3.116379        -0.753931
 H        -0.203524         2.372670         1.588821
 H        -0.649251        -0.025203         2.261619
 H        -2.055636         0.027111         1.193292
 H         0.686561        -1.168753         0.623214
 H        -2.929588         2.131121         2.512523
