19
Iteration:  4031charge 0 multiplicity 1
 O        -3.115133         4.967270         1.673854
 C        -2.617687         3.940259         0.855853
 C        -3.109798         2.574423         1.404408
 C        -2.840984         1.429374         0.355196
 C        -1.356606         1.848908         0.623048
 C        -0.659331         0.637163         1.164867
 C        -0.033324        -0.237888         0.036816
 O         0.589503         0.167437        -0.972439
 C        -1.681016         2.973984         1.590364
 H        -2.557945         5.703364         1.422432
 H        -2.473837         4.115944        -0.223540
 H        -3.932169         2.732183         2.102263
 H        -3.007924         0.505528         0.875459
 H        -3.390469         1.516384        -0.643196
 H        -0.729927         2.170871        -0.178982
 H         0.285149         0.862714         1.760904
 H        -1.259813        -0.008104         1.840461
 H        -0.180163        -1.301781         0.215748
 H        -1.064395         3.160416         2.445401
