19
Iteration:  3208charge 0 multiplicity 1
 O        -3.125161         4.728875         0.694186
 C        -3.109331         3.313386         0.990564
 C        -2.225658         2.992098         2.117785
 C        -2.375314         1.476347         2.414098
 C        -1.921415         1.151481         0.920013
 C        -0.615747         0.353549         0.803640
 C         0.215156         0.444501        -0.325274
 O         0.151917         1.130471        -1.312916
 C        -1.741433         2.631990         0.711158
 H        -3.027202         4.767430        -0.250621
 H        -4.095856         2.854847         0.840803
 H        -2.105189         3.819613         2.871700
 H        -1.441758         1.026674         3.034233
 H        -3.432347         1.187617         2.724993
 H        -2.678272         0.848076         0.097540
 H         0.051785         0.764981         1.548094
 H        -0.784625        -0.648722         1.032318
 H         1.034988        -0.232562        -0.361083
 H        -0.983852         3.134184        -0.048680
