19
Iteration:  2999
 O        -3.458936         4.737569         0.931354
 C        -3.389599         3.387185         1.111578
 C        -2.327551         3.080863         2.131310
 C        -2.226811         1.511156         2.336330
 C        -1.901085         1.259539         0.824967
 C        -0.524914         0.713652         0.702336
 C        -0.045998         0.414883        -0.724922
 O         1.112823         0.396143        -1.117772
 C        -2.001808         2.820648         0.658985
 H        -3.381580         4.868198        -0.026142
 H        -4.364847         2.854196         1.328900
 H        -1.950051         3.902943         2.876768
 H        -1.421054         1.169431         2.945973
 H        -3.147335         1.012134         2.672611
 H        -2.756503         0.752123         0.435862
 H         0.165330         1.354462         1.278090
 H        -0.683316        -0.246612         1.475426
 H        -0.913881         0.030332        -1.371480
 H        -1.289530         3.517465         0.058234
