19
Iteration:  3672charge 0 multiplicity 1
 O        -3.556655         4.730690         2.081785
 C        -3.074951         3.774128         1.109977
 C        -2.774160         2.459147         1.664756
 C        -2.609355         1.501637         0.499932
 C        -1.270918         2.205723         0.052096
 C         0.106180         1.429932         0.357078
 C         0.016307         0.075542        -0.396283
 O         0.105039        -1.021496         0.053287
 C        -1.590201         3.298761         1.169438
 H        -3.293490         5.641464         1.733237
 H        -3.670456         3.739301         0.172010
 H        -3.254851         2.218052         2.599998
 H        -2.304666         0.489152         0.777345
 H        -3.361951         1.418848        -0.351343
 H        -1.278897         2.577356        -0.947501
 H         0.966784         1.896275        -0.091004
 H         0.258786         1.262614         1.426438
 H        -0.043566         0.201593        -1.478787
 H        -0.758003         3.829254         1.770262
