19
Iteration:  4746charge 0 multiplicity 1
 O        -3.003787         4.895108         2.017038
 C        -2.199288         3.962928         1.290310
 C        -3.042822         3.082204         0.434235
 C        -2.142774         2.139783        -0.453198
 C        -1.342851         1.777723         0.821878
 C        -1.206422         0.202340         1.069859
 C         0.046266        -0.263426         0.430337
 O         0.402888        -0.078938        -0.760974
 C        -2.349130         2.619729         1.727021
 H        -2.731522         5.159007         2.902603
 H        -1.263550         4.237409         0.895233
 H        -4.118633         3.254027         0.358345
 H        -2.581377         1.281451        -0.941205
 H        -1.678574         2.715441        -1.224455
 H        -0.267598         2.293168         0.736441
 H        -1.166814        -0.026602         2.177170
 H        -2.022899        -0.398687         0.627062
 H         0.824101        -0.742633         1.074039
 H        -2.845378         2.510274         2.669309
