19
Iteration:  3778
 O        -3.184871         4.903803         2.016714
 C        -3.005358         4.009520         1.017976
 C        -3.146166         2.552453         1.566591
 C        -2.884809         1.427604         0.456662
 C        -1.448344         2.103306         0.196772
 C        -0.245519         1.167626         0.492254
 C        -0.119299        -0.158996        -0.277260
 O         0.947414        -0.785310        -0.270541
 C        -1.824172         3.170148         1.328564
 H        -2.513699         5.665926         1.948833
 H        -3.446188         4.169231         0.055322
 H        -3.447309         2.510289         2.583350
 H        -2.618819         0.562719         0.988107
 H        -3.601530         1.161987        -0.322872
 H        -1.153390         2.804869        -0.750795
 H         0.739560         1.782941         0.331217
 H        -0.256627         1.036386         1.603156
 H        -1.050511        -0.717695        -0.703310
 H        -1.069658         3.439093         2.183231
