19
Iteration:  2709
 O        -3.731355         4.481453         0.736986
 C        -3.362066         3.156990         0.931247
 C        -2.481434         3.067769         2.126787
 C        -2.105007         1.721159         2.609190
 C        -1.614084         1.368976         1.025290
 C        -0.119909         0.822762         0.862255
 C         0.523126         0.758121        -0.535705
 O         0.097126         0.132903        -1.501086
 C        -1.871637         2.851106         0.737508
 H        -3.596848         4.645899        -0.236328
 H        -4.170635         2.301868         0.754272
 H        -2.271715         4.016561         2.707791
 H        -1.154368         1.910844         3.332697
 H        -2.828352         1.055414         2.880304
 H        -2.271014         0.730400         0.337527
 H         0.476209         1.277809         1.583078
 H        -0.200726        -0.199195         1.318130
 H         1.388039         1.423300        -0.708616
 H        -1.191331         3.635145         0.343360
