19
Iteration:   420charge 0 multiplicity 1
 O        -3.465096         4.850145         1.709202
 C        -2.897113         3.820118         0.846873
 C        -3.155604         2.439460         1.209802
 C        -2.543324         1.409824         0.239000
 C        -1.055981         1.935789         0.487292
 C        -0.036925         1.045367         1.227621
 C         0.308198        -0.112804         0.314276
 O        -0.140347        -0.112659        -0.808273
 C        -1.671829         3.063647         1.438370
 H        -2.694671         5.480824         1.578895
 H        -2.996507         4.146037        -0.159864
 H        -4.067711         2.294484         1.831643
 H        -2.682231         0.400350         0.741884
 H        -2.982558         1.329105        -0.797496
 H        -0.557625         2.179638        -0.424522
 H         0.735421         1.678660         1.703519
 H        -0.647967         0.598323         2.184204
 H         1.099662        -0.904622         0.519556
 H        -1.226486         3.374329         2.457572
