19
Iteration:  4338
 O        -3.337017         4.522406         2.346943
 C        -2.690895         4.085789         1.184531
 C        -3.179319         2.769563         0.578647
 C        -2.195249         2.309943        -0.524641
 C        -0.977707         2.355529         0.426322
 C        -0.353583         1.054842         0.813629
 C         0.094752        -0.068113        -0.115309
 O        -0.068232        -1.299262         0.080718
 C        -2.009179         2.779210         1.614590
 H        -2.646807         4.697616         2.973248
 H        -2.237375         4.841824         0.463994
 H        -4.250527         2.611340         0.714999
 H        -2.541559         1.411298        -0.897492
 H        -2.029730         3.134862        -1.246995
 H        -0.410982         3.193872         0.175288
 H         0.530810         1.353790         1.415164
 H        -1.051183         0.602852         1.475526
 H         0.535717         0.230441        -1.066281
 H        -2.015266         2.453997         2.669319
