19
Iteration:  1393charge 0 multiplicity 1
 O        -3.665383         4.679058         1.650866
 C        -3.223358         3.556938         1.004427
 C        -2.550436         2.540311         1.937421
 C        -2.317967         1.170973         1.107542
 C        -1.336073         2.019101         0.181429
 C         0.119484         1.602283         0.299789
 C         0.105021         0.118788         0.272047
 O        -0.049867        -0.561281        -0.691969
 C        -1.684396         3.239350         0.954760
 H        -3.786958         5.511316         1.197578
 H        -3.781320         3.255334         0.079979
 H        -2.315582         2.796962         2.926846
 H        -1.882450         0.540357         1.815558
 H        -3.275360         0.702084         0.669245
 H        -1.464298         1.922419        -0.978600
 H         0.770981         2.154218        -0.511701
 H         0.457008         2.109674         1.268329
 H         0.167693        -0.442116         1.184052
 H        -1.131786         4.161866         1.133294
