19
Iteration:  4200
 O        -3.559425         4.654053         1.863725
 C        -2.614933         3.925834         1.066710
 C        -2.969049         2.451422         1.061642
 C        -2.226873         1.866498        -0.199516
 C        -0.923733         2.289811         0.602734
 C        -0.166329         0.956258         1.076012
 C         0.141562         0.140134        -0.088233
 O        -0.550266        -0.813764        -0.520979
 C        -1.710293         2.958608         1.770141
 H        -3.043557         5.373963         2.288752
 H        -2.309505         4.445232         0.171793
 H        -3.936785         2.187983         1.493380
 H        -2.284674         0.730939        -0.383702
 H        -2.512686         2.499414        -1.065654
 H        -0.263769         2.932325         0.046436
 H         0.687817         1.225419         1.756573
 H        -0.843562         0.437713         1.827855
 H         1.068029         0.460683        -0.642143
 H        -1.524093         2.761856         2.774136
