19
Iteration:  4042
 O        -3.133658         4.994397         1.737979
 C        -2.610952         3.896999         0.855115
 C        -3.197398         2.602193         1.335373
 C        -2.843519         1.520685         0.420871
 C        -1.281480         1.848403         0.586927
 C        -0.593379         0.605894         1.184045
 C         0.028646        -0.288470         0.041400
 O         0.548712         0.085100        -0.989079
 C        -1.708270         2.990655         1.547353
 H        -2.634946         5.858388         1.748655
 H        -2.632792         4.197936        -0.184394
 H        -3.994361         2.499057         2.036279
 H        -3.136029         0.507363         0.564803
 H        -3.165619         1.725933        -0.677669
 H        -0.802338         2.191545        -0.306687
 H         0.285283         1.035850         1.751280
 H        -1.215024         0.006425         1.884943
 H         0.214381        -1.316783         0.306725
 H        -1.389462         3.507395         2.447914
