19
Iteration:   380
 O        -3.487644         4.785500         1.477961
 C        -2.750093         3.739875         0.857549
 C        -3.104932         2.383116         1.229530
 C        -2.450427         1.512711         0.266892
 C        -1.075917         2.149851         0.674234
 C        -0.106986         1.110924         1.254527
 C         0.339326         0.044556         0.113964
 O        -0.304869        -0.407131        -0.842088
 C        -1.732533         3.064016         1.721859
 H        -2.993644         5.248650         2.147382
 H        -2.551029         3.898558        -0.269600
 H        -4.209820         2.179586         1.413546
 H        -2.385942         0.508235         0.504009
 H        -2.736154         1.673277        -0.742973
 H        -0.611099         2.814020        -0.127355
 H         0.823950         1.556442         1.595035
 H        -0.505368         0.549549         2.024829
 H         1.353937        -0.293867         0.327516
 H        -1.273903         3.333156         2.736303
