19
Iteration:  2764charge 0 multiplicity 1
 O        -3.864671         4.518392         0.884895
 C        -3.334941         3.228786         1.041359
 C        -2.359094         3.101428         2.177160
 C        -2.167481         1.573377         2.268010
 C        -1.585975         1.457178         0.851870
 C        -0.138648         0.935794         0.837591
 C         0.392898         0.854658        -0.606445
 O         0.264271        -0.186683        -1.221996
 C        -1.800741         2.982698         0.723242
 H        -4.119298         4.717506        -0.065592
 H        -4.063956         2.329421         0.841157
 H        -2.173171         3.903349         2.997822
 H        -1.420766         1.080361         3.145905
 H        -3.063687         1.001161         2.400705
 H        -2.171369         0.910712         0.046953
 H         0.487720         1.565395         1.403881
 H        -0.028173        -0.149226         1.337250
 H         1.047288         1.673271        -1.001330
 H        -1.293547         3.640685        -0.045955
