19
Iteration:  4929
 O        -3.676952         4.394109         2.013177
 C        -2.454175         4.014018         1.413452
 C        -2.510333         3.141811         0.157628
 C        -1.234161         2.630391        -0.399885
 C        -0.824108         2.093828         0.998832
 C        -0.693808         0.577351         1.249356
 C        -0.620678        -0.505046         0.320781
 O        -0.395391        -0.416975        -0.851381
 C        -2.137677         2.617113         1.607158
 H        -3.454140         4.213514         2.919044
 H        -1.671168         4.806473         1.356656
 H        -3.516331         2.929428        -0.272411
 H        -1.180877         1.864871        -1.141440
 H        -0.582712         3.387318        -0.863792
 H         0.135057         2.594851         1.392874
 H         0.034028         0.383397         2.045478
 H        -1.670038         0.285529         1.740520
 H        -1.001227        -1.464122         0.893617
 H        -2.585156         2.109661         2.380049
