19
Iteration:  4774
 O        -3.209183         4.880259         1.899442
 C        -2.183336         4.064114         1.290816
 C        -2.898348         3.144267         0.428399
 C        -1.964168         2.080486        -0.370232
 C        -1.191112         1.708757         0.961701
 C        -1.268696         0.093552         1.159741
 C        -0.020269        -0.187644         0.333669
 O         0.196306         0.016101        -0.819387
 C        -2.194407         2.533482         1.741105
 H        -3.003329         5.340743         2.752880
 H        -1.208367         4.535260         0.872609
 H        -3.973397         3.230827         0.420514
 H        -2.477132         1.226466        -0.841013
 H        -1.385248         2.589572        -1.223022
 H        -0.229548         2.090546         0.979351
 H        -1.315399        -0.344703         2.143450
 H        -2.091945        -0.260205         0.541508
 H         0.868836        -0.697489         0.968412
 H        -2.654098         2.303076         2.775501
