19
Iteration:  3089charge 0 multiplicity 1
 O        -3.150408         4.668798         0.539335
 C        -3.245647         3.349105         0.984121
 C        -2.246417         2.945544         2.095404
 C        -2.226834         1.508870         2.539609
 C        -1.942051         1.098649         1.052328
 C        -0.542324         0.372169         0.787002
 C        -0.232395         0.454895        -0.656624
 O         0.651678         1.216550        -1.031664
 C        -1.848459         2.617491         0.719377
 H        -2.863666         4.810830        -0.414152
 H        -4.213381         2.777459         0.766338
 H        -1.924960         3.711019         2.711001
 H        -1.457130         1.274431         3.103879
 H        -3.234887         1.215206         2.890407
 H        -2.623414         0.488866         0.501590
 H         0.278475         0.893190         1.407319
 H        -0.756492        -0.757754         1.101936
 H        -0.848861        -0.233663        -1.304888
 H        -1.268355         3.127954         0.039391
