19
Iteration:  1103charge 0 multiplicity 1
 O        -3.653238         4.682062         1.638852
 C        -3.152781         3.594583         0.938777
 C        -2.791865         2.437502         1.792024
 C        -2.384413         1.201498         0.973683
 C        -1.272254         2.008631         0.315978
 C         0.155156         1.526897         0.598258
 C         0.387626         0.334412        -0.406745
 O        -0.271532        -0.671619        -0.234373
 C        -1.618084         3.282674         1.054375
 H        -3.250863         5.497887         1.291287
 H        -3.787381         3.429756        -0.006798
 H        -3.192142         2.496399         2.819570
 H        -2.139819         0.383453         1.714305
 H        -2.959984         0.832849         0.145986
 H        -1.427677         2.229506        -0.863846
 H         0.998774         2.318859         0.484753
 H         0.164809         1.193470         1.650950
 H         1.109814         0.408449        -1.285426
 H        -0.947426         3.975428         1.612484
