19
Iteration:  4144charge 0 multiplicity 1
 O        -3.338158         4.853249         2.051649
 C        -2.685179         4.047075         1.037507
 C        -3.178606         2.579527         0.973796
 C        -2.524102         1.681396        -0.089866
 C        -1.120217         1.957625         0.539730
 C        -0.241102         0.931303         1.124332
 C         0.360546         0.018026         0.145911
 O        -0.219638        -0.595204        -0.784662
 C        -1.760466         2.915685         1.591441
 H        -2.586021         5.384366         2.281040
 H        -2.567969         4.461654         0.068148
 H        -4.077539         2.165509         1.536165
 H        -2.928383         0.686549         0.103815
 H        -2.863476         1.910054        -1.175580
 H        -0.413929         2.388071        -0.106343
 H         0.473794         1.703778         1.492124
 H        -0.718830         0.289481         1.910331
 H         1.471172        -0.267787         0.328628
 H        -1.415340         3.159355         2.634126
