19
Iteration:  3743charge 0 multiplicity 1
 O        -3.317723         4.841211         2.021246
 C        -2.944312         3.902072         1.054089
 C        -3.036464         2.460344         1.573072
 C        -2.830134         1.417257         0.390066
 C        -1.403067         2.129423         0.162088
 C        -0.048362         1.375660         0.406386
 C        -0.177529        -0.022313        -0.193297
 O         0.667036        -0.884467        -0.151197
 C        -1.678049         3.165074         1.318889
 H        -2.786523         5.696145         1.998285
 H        -3.392510         4.109566         0.060724
 H        -3.516498         2.301763         2.517585
 H        -2.693629         0.359193         0.802374
 H        -3.660509         1.394651        -0.320931
 H        -1.324016         2.631584        -0.916505
 H         0.715751         2.016022        -0.139494
 H         0.250198         1.312601         1.537664
 H        -1.155038        -0.137816        -0.804093
 H        -0.918412         3.442341         2.051605
