19
Iteration:  2756
 O        -3.847947         4.507010         0.855493
 C        -3.345284         3.231844         1.020972
 C        -2.355253         3.147156         2.184041
 C        -2.122403         1.515045         2.298108
 C        -1.607598         1.443270         0.859156
 C        -0.146157         0.908269         0.799671
 C         0.432012         0.823145        -0.548946
 O         0.238382        -0.145650        -1.260672
 C        -1.850321         2.995799         0.740529
 H        -4.006144         4.476792        -0.122587
 H        -4.165345         2.458047         0.859119
 H        -2.276813         4.011660         2.948802
 H        -1.178586         1.301014         2.868386
 H        -3.019403         1.023636         2.605880
 H        -2.128569         0.810303         0.078284
 H         0.493985         1.568366         1.476303
 H        -0.253481        -0.005433         1.294653
 H         1.046304         1.687863        -0.872577
 H        -1.153242         3.696596         0.281337
