19
Iteration:  4237charge 0 multiplicity 1
 O        -3.596294         4.641460         1.955711
 C        -2.739540         3.957005         1.087912
 C        -2.940814         2.445403         0.889124
 C        -2.085447         1.972581        -0.256039
 C        -0.801414         2.321139         0.653540
 C        -0.041229         0.947669         1.059188
 C        -0.082846         0.195311        -0.200928
 O        -0.537683        -0.960951        -0.317611
 C        -1.748876         2.931982         1.771550
 H        -3.161123         5.443586         2.371491
 H        -2.420999         4.441195         0.117426
 H        -3.930254         2.199958         1.285749
 H        -2.122568         0.948320        -0.603213
 H        -2.188160         2.537998        -1.181823
 H        -0.091814         3.039619         0.339071
 H         1.024584         1.116549         1.227813
 H        -0.566823         0.224101         1.652674
 H         0.344401         0.688825        -1.148156
 H        -1.815854         2.776641         2.915922
