19
Iteration:  2461charge 0 multiplicity 1
 O        -3.879663         4.357300         0.625073
 C        -3.434348         3.135062         1.049823
 C        -2.258239         3.130754         1.968330
 C        -1.811124         1.804490         2.520944
 C        -1.664948         1.269196         1.067794
 C        -0.254853         0.491726         1.014213
 C         0.367406         0.322938        -0.415098
 O         0.331900         1.115805        -1.317874
 C        -2.034483         2.722930         0.456751
 H        -4.284729         4.162822        -0.234875
 H        -4.333536         2.371054         1.167769
 H        -1.855783         3.999139         2.368356
 H        -0.880281         1.858923         2.941678
 H        -2.466286         1.299361         3.321265
 H        -2.460124         0.505528         0.655341
 H         0.514288         1.104317         1.385223
 H        -0.270750        -0.514298         1.449874
 H         1.029385        -0.527621        -0.396872
 H        -1.475494         3.272013        -0.359405
