19
Iteration:   843charge 0 multiplicity 1
 O        -3.367100         4.873042         1.931511
 C        -3.060514         3.853670         0.939944
 C        -2.991315         2.440497         1.545106
 C        -2.776575         1.245108         0.544471
 C        -1.422212         1.990592         0.140301
 C        -0.187437         1.371191         0.627666
 C        -0.093194         0.087098        -0.112614
 O         0.848057        -0.617182        -0.203910
 C        -1.726711         3.156738         1.137995
 H        -2.738406         5.625595         1.983958
 H        -3.565438         3.973572        -0.040487
 H        -3.360379         2.210125         2.580695
 H        -2.845555         0.216102         1.054955
 H        -3.583618         1.324875        -0.140653
 H        -1.291096         2.106763        -0.983212
 H         0.729019         1.984021         0.468147
 H        -0.295069         1.045093         1.693801
 H        -1.022854        -0.376326        -0.540792
 H        -0.928684         3.636015         1.642375
