19
Iteration:  1659charge 0 multiplicity 1
 O        -3.511896         4.807826         0.921822
 C        -3.324047         3.426030         1.011472
 C        -2.527452         2.962175         2.150360
 C        -2.372937         1.432662         2.107419
 C        -1.563955         1.320703         0.785591
 C        -0.113340         0.915898         0.878875
 C         0.502843         0.272068        -0.275244
 O         0.012176         0.209610        -1.370955
 C        -1.780050         2.998288         0.748640
 H        -3.222997         5.020691         0.005664
 H        -4.152060         2.785831         0.808021
 H        -2.420359         3.589183         3.036342
 H        -1.784266         0.927682         2.836032
 H        -3.229875         0.811726         1.887124
 H        -2.039958         0.902080        -0.077921
 H         0.467584         1.674197         1.370001
 H        -0.141548         0.107836         1.572584
 H         1.522923        -0.162510        -0.136282
 H        -1.192562         3.736612         0.175223
