19
Iteration:  3758
 O        -3.241011         4.910905         2.058768
 C        -3.016498         3.866886         1.069259
 C        -3.176035         2.477700         1.541596
 C        -2.801367         1.484530         0.521639
 C        -1.411408         2.102302         0.146026
 C        -0.154837         1.319328         0.413422
 C        -0.129816        -0.036535        -0.211430
 O         0.807048        -0.884891        -0.212376
 C        -1.712982         3.150975         1.274746
 H        -2.501740         5.480842         1.777622
 H        -3.164228         4.189754         0.067477
 H        -3.965715         2.282100         2.307772
 H        -2.830667         0.522473         0.847196
 H        -3.370042         1.468764        -0.411200
 H        -1.404064         2.531669        -0.920264
 H         0.817565         1.758185         0.072369
 H        -0.016232         1.152365         1.436994
 H        -1.086211        -0.289133        -0.571711
 H        -1.003585         3.672224         2.032558
