19
Iteration:  1749
 O        -3.285337         4.641107         0.497784
 C        -3.178503         3.319178         0.923320
 C        -2.362489         3.025332         2.142161
 C        -2.284323         1.528653         2.451335
 C        -1.731803         1.164673         1.050284
 C        -0.382483         0.434568         0.963763
 C         0.377686         0.507724        -0.307902
 O        -0.074764         1.018337        -1.334048
 C        -1.800351         2.623293         0.636549
 H        -3.427309         4.660328        -0.485628
 H        -4.205015         2.910564         0.893284
 H        -1.856484         3.672022         2.863392
 H        -1.445734         1.370383         3.210584
 H        -3.207803         1.077697         2.723571
 H        -2.415440         0.567162         0.421145
 H         0.245146         0.573875         1.802709
 H        -0.439067        -0.639709         0.953720
 H         1.539949         0.394619        -0.287437
 H        -1.013058         3.247603         0.135730
