19
Iteration:  1379charge 0 multiplicity 1
 O        -3.611939         4.755170         1.712543
 C        -3.237922         3.508651         1.029632
 C        -2.613665         2.484069         1.885420
 C        -2.311956         1.215798         1.123049
 C        -1.389003         2.041193         0.145223
 C         0.124365         1.630898         0.313163
 C         0.193500         0.071359         0.272078
 O        -0.018285        -0.633796        -0.685101
 C        -1.762239         3.373004         0.904382
 H        -3.407622         5.323394         0.918837
 H        -4.043349         3.132423         0.309247
 H        -2.890108         2.410632         2.953181
 H        -1.673204         0.432313         1.571922
 H        -3.094925         0.718175         0.613298
 H        -1.829856         2.091082        -0.876817
 H         0.756087         2.030078        -0.490135
 H         0.513725         1.807932         1.276587
 H         0.377384        -0.273523         1.295140
 H        -0.998666         4.062241         1.131812
