19
Iteration:   615charge 0 multiplicity 1
 O        -3.264787         5.045306         1.521178
 C        -2.829670         3.821849         0.800286
 C        -3.177668         2.527680         1.570106
 C        -2.981368         1.386789         0.626717
 C        -1.381216         1.751983         0.597675
 C        -0.319332         0.819858         1.113507
 C         0.021393        -0.054003        -0.056571
 O         0.929646        -0.032973        -0.848156
 C        -1.766727         2.997485         1.488133
 H        -2.858792         5.765485         0.992162
 H        -2.919363         3.755871        -0.315832
 H        -4.005861         2.619267         2.257162
 H        -3.213248         0.376264         1.137164
 H        -3.418194         1.499652        -0.361643
 H        -1.238264         2.127427        -0.478911
 H         0.500281         1.428955         1.532977
 H        -0.681840         0.192166         1.869731
 H        -0.789300        -0.798500        -0.175539
 H        -1.091900         3.415555         2.307919
