19
Iteration:  1396charge 0 multiplicity 1
 O        -3.691445         4.668045         1.656331
 C        -3.182100         3.538693         0.978688
 C        -2.547391         2.539647         1.937169
 C        -2.332030         1.203391         1.141565
 C        -1.311375         2.011832         0.155337
 C         0.112360         1.605294         0.317415
 C         0.097494         0.129745         0.262640
 O        -0.061423        -0.537575        -0.704543
 C        -1.680112         3.227986         0.958295
 H        -3.840382         5.505684         1.120406
 H        -3.707173         3.206869         0.140880
 H        -2.364320         2.823721         3.017336
 H        -1.831466         0.481253         1.856737
 H        -3.302722         0.808020         0.637807
 H        -1.442644         1.744286        -0.916684
 H         0.714808         1.995331        -0.542740
 H         0.494001         2.170117         1.287154
 H         0.095115        -0.495809         1.230004
 H        -0.991266         4.165767         1.141675
