19
Iteration:   947charge 0 multiplicity 1
 O        -3.512767         4.708289         1.868670
 C        -3.031516         3.758730         1.000606
 C        -2.961710         2.400775         1.631333
 C        -2.699137         1.383414         0.620369
 C        -1.404024         2.193622         0.147768
 C        -0.035118         1.552554         0.318694
 C        -0.038404         0.062351        -0.369572
 O         0.641367        -0.871821         0.088358
 C        -1.685063         3.260010         1.282181
 H        -3.086887         5.581362         1.642948
 H        -3.297288         4.012356        -0.099399
 H        -3.401208         2.245795         2.582344
 H        -2.637181         0.434610         1.009376
 H        -3.503985         1.374791        -0.113455
 H        -1.551418         2.466915        -0.886420
 H         0.957217         1.951923        -0.015697
 H         0.194718         1.234028         1.379830
 H        -0.819657        -0.252983        -1.073668
 H        -0.965287         3.794625         1.932972
