19
Iteration:  4223
 O        -3.643139         4.698482         1.888857
 C        -2.696530         3.890494         1.132356
 C        -2.998603         2.464760         0.968444
 C        -2.105642         1.995791        -0.205689
 C        -0.792882         2.248242         0.623314
 C        -0.098779         0.954201         1.098604
 C        -0.012937         0.204755        -0.199986
 O        -0.552793        -0.881959        -0.379142
 C        -1.684189         2.837962         1.696674
 H        -3.014180         5.330000         2.235319
 H        -2.280042         4.503389         0.345642
 H        -3.799265         1.828258         1.210872
 H        -2.393344         0.852188        -0.300338
 H        -2.221211         2.639911        -1.091351
 H        -0.109104         2.809068         0.053624
 H         0.901465         1.120766         1.621494
 H        -0.714828         0.620654         1.991557
 H         0.448576         0.798638        -1.022619
 H        -1.366241         2.838874         2.667417
