19
Iteration:   712
 O        -3.091186         5.041737         1.580806
 C        -2.881015         3.862865         0.869975
 C        -3.316672         2.523355         1.523466
 C        -2.935823         1.189260         0.777875
 C        -1.509297         1.839615         0.562415
 C        -0.371574         0.983022         0.947542
 C        -0.036771         0.121182        -0.301949
 O         1.099640        -0.258676        -0.598152
 C        -1.834097         3.021447         1.366181
 H        -2.635948         5.751041         1.076141
 H        -3.079529         3.888565        -0.265168
 H        -3.929695         2.491383         2.373308
 H        -2.972334         0.308227         1.493114
 H        -3.455914         0.977730        -0.114265
 H        -1.417488         2.169492        -0.422673
 H         0.625032         1.504324         1.183932
 H        -0.646124         0.287789         1.818720
 H        -0.926019        -0.209763        -0.866219
 H        -1.362352         3.407673         2.272505
