19
Iteration:  1066
 O        -3.563273         4.789949         1.752561
 C        -3.237114         3.593467         1.053334
 C        -2.801423         2.467963         1.782099
 C        -2.465682         1.281133         0.829897
 C        -1.305837         2.119653         0.205928
 C         0.061143         1.557805         0.542092
 C         0.451923         0.211178        -0.304456
 O        -0.042776        -0.899666        -0.249223
 C        -1.700260         3.317928         1.057827
 H        -3.669261         5.456074         1.076102
 H        -3.918228         3.273085         0.249928
 H        -3.151688         2.428100         2.885687
 H        -2.126084         0.383220         1.274220
 H        -3.272938         0.977053         0.130216
 H        -1.562068         2.168213        -0.955138
 H         0.762506         2.353684         0.474909
 H        -0.003233         1.310736         1.641854
 H         1.215954         0.397340        -1.037063
 H        -0.945317         3.984396         1.440500
