19
Iteration:   670charge 0 multiplicity 1
 O        -3.318077         5.037476         1.393265
 C        -2.816643         3.777015         0.826911
 C        -3.298354         2.611612         1.622895
 C        -2.991186         1.402593         0.741315
 C        -1.456309         1.829875         0.704018
 C        -0.372448         0.805089         0.984080
 C         0.017109        -0.133436        -0.241646
 O         1.108578        -0.121464        -0.798476
 C        -1.742362         3.091957         1.543900
 H        -2.655202         5.482180         1.913409
 H        -2.794620         3.832991        -0.311336
 H        -3.761540         2.799923         2.537596
 H        -3.145559         0.398997         1.259431
 H        -3.488745         1.352140        -0.214244
 H        -1.183029         2.161231        -0.362874
 H         0.560809         1.383110         1.174805
 H        -0.619108         0.196107         1.837897
 H        -0.874034        -0.737690        -0.635230
 H        -1.061470         3.456487         2.311628
