19
Iteration:  3071
 O        -3.182433         4.693998         0.653291
 C        -3.152143         3.302235         0.973923
 C        -2.270436         3.044626         2.118181
 C        -2.354284         1.490720         2.494233
 C        -1.873578         1.132790         1.057653
 C        -0.565105         0.442085         0.887272
 C        -0.194530         0.516902        -0.645323
 O         0.768564         1.069742        -1.156908
 C        -1.966954         2.567399         0.605484
 H        -3.193665         4.609050        -0.349517
 H        -4.110105         2.839382         1.062910
 H        -1.809639         3.873289         2.719650
 H        -1.666539         1.256386         3.440660
 H        -3.346753         1.062433         2.723014
 H        -2.656430         0.501271         0.521684
 H         0.332455         0.862019         1.409363
 H        -0.505393        -0.659490         1.069384
 H        -1.071881         0.078174        -1.231375
 H        -1.124727         3.027557        -0.028759
