19
Iteration:  3061
 O        -3.209683         4.658783         0.688767
 C        -3.174040         3.332651         0.988359
 C        -2.234564         3.002427         2.120645
 C        -2.426005         1.563997         2.505087
 C        -1.989781         1.116847         1.033992
 C        -0.433394         0.471916         0.873200
 C        -0.173459         0.530462        -0.635511
 O         0.811062         0.978348        -1.199481
 C        -1.928696         2.564564         0.618627
 H        -3.451430         4.990724        -0.183765
 H        -4.119530         2.821243         0.993334
 H        -1.876276         3.893996         2.719671
 H        -1.538248         1.106431         3.191934
 H        -3.454402         1.333203         2.833672
 H        -2.567621         0.401624         0.370876
 H         0.255318         0.998953         1.505728
 H        -0.629176        -0.492233         1.199120
 H        -1.069387         0.302492        -1.264628
 H        -1.147612         3.077255        -0.070900
