19
Iteration:  4380charge 0 multiplicity 1
 O        -3.496721         4.633261         2.292922
 C        -2.565099         4.095346         1.209799
 C        -3.112295         2.846842         0.734145
 C        -2.303678         2.377165        -0.483814
 C        -1.050509         2.224136         0.385522
 C        -0.669427         0.855519         0.882469
 C         0.043528        -0.107813        -0.131681
 O         0.269792        -1.299963        -0.021329
 C        -1.815925         2.874882         1.584875
 H        -2.926781         5.119828         2.941961
 H        -2.182940         4.903962         0.548190
 H        -4.152967         2.631105         0.946546
 H        -2.529877         1.432249        -1.000165
 H        -2.150622         3.113999        -1.337805
 H        -0.113005         2.644878         0.008288
 H        -0.015300         0.995580         1.803727
 H        -1.592919         0.339627         1.144528
 H         0.517732         0.446468        -1.023284
 H        -1.867654         2.593799         2.696631
