19
Iteration:  1574
 O        -3.575180         4.800994         1.058433
 C        -3.209338         3.412672         0.866864
 C        -2.728257         2.798968         2.147645
 C        -2.424595         1.327532         1.872910
 C        -1.404228         1.620298         0.758302
 C         0.016785         1.153063         0.821611
 C         0.497843         0.487541        -0.500370
 O        -0.150446        -0.363447        -1.115443
 C        -1.715069         3.125570         1.001237
 H        -3.058909         5.384031         0.452275
 H        -3.877726         3.082243         0.124250
 H        -2.918737         3.235227         3.104273
 H        -1.988454         0.738795         2.721894
 H        -3.154095         0.667137         1.486579
 H        -1.727840         1.346330        -0.238243
 H         0.776587         1.846257         1.104564
 H         0.245625         0.328601         1.594353
 H         1.556172         0.906944        -0.769321
 H        -0.987020         3.938887         0.902023
