19
Iteration:  4497
 O        -3.086863         5.077235         2.052114
 C        -2.289280         4.039390         1.319659
 C        -3.212241         3.086478         0.521181
 C        -2.449693         2.034928        -0.340948
 C        -1.328759         1.947528         0.723422
 C        -0.768103         0.545616         1.023699
 C        -0.207303        -0.158753        -0.226636
 O         0.854672        -0.737253        -0.256082
 C        -2.373485         2.569572         1.708206
 H        -2.679367         5.153184         2.904728
 H        -1.357600         4.505477         0.941402
 H        -4.304471         3.210360         0.606091
 H        -3.157766         1.088040        -0.277177
 H        -2.344840         2.242672        -1.437214
 H        -0.526180         2.609711         0.402037
 H         0.090009         0.730598         1.629699
 H        -1.387065        -0.244029         1.579086
 H        -0.661672         0.052286        -1.237165
 H        -2.706679         2.017134         2.644594
