19
Iteration:  4306
 O        -3.545491         4.559420         2.193248
 C        -2.589180         3.993778         1.314372
 C        -3.074011         2.781029         0.666899
 C        -2.219629         2.208612        -0.515150
 C        -0.905301         2.263074         0.403353
 C        -0.180118         1.049268         0.880377
 C         0.037166         0.005121        -0.139403
 O        -0.272444        -1.129133         0.044198
 C        -1.857027         2.737643         1.642379
 H        -3.066603         4.806559         3.013787
 H        -2.181594         4.818391         0.695923
 H        -4.154978         2.637208         0.729109
 H        -2.557419         1.327151        -0.937623
 H        -2.124300         2.829290        -1.416062
 H        -0.316169         3.056131        -0.064480
 H         0.784184         1.395392         1.256842
 H        -0.765866         0.617357         1.653789
 H         0.344709         0.422370        -1.139464
 H        -1.761229         2.292028         2.626685
