19
Iteration:  1674charge 0 multiplicity 1
 O        -3.493198         4.779877         0.885371
 C        -3.240701         3.378349         0.967683
 C        -2.394690         2.911372         2.118874
 C        -2.388312         1.379597         2.179484
 C        -1.652182         1.428768         0.763537
 C        -0.205592         0.907159         0.956842
 C         0.477389         0.309870        -0.257903
 O         0.016033         0.346449        -1.398641
 C        -1.839400         2.864554         0.691862
 H        -3.207841         5.096697         0.029733
 H        -4.105276         2.750250         0.547488
 H        -2.113023         3.590550         2.949281
 H        -1.676502         1.181261         3.106377
 H        -3.401880         0.987225         2.318944
 H        -2.134349         0.676267        -0.021511
 H         0.531134         1.710157         1.295615
 H        -0.043643         0.211814         1.898597
 H         1.395638        -0.350280        -0.133172
 H        -1.026216         3.576380         0.345453
