19
Iteration:  1903charge 0 multiplicity 1
 O        -3.483789         4.680460         0.688968
 C        -3.196894         3.271274         0.921841
 C        -2.390185         3.013339         2.084363
 C        -2.346701         1.538912         2.395433
 C        -1.715495         1.247037         0.969610
 C        -0.268288         0.617023         0.975680
 C         0.134940         0.270077        -0.370003
 O         0.311737         0.918590        -1.364096
 C        -1.776074         2.744431         0.686524
 H        -2.989419         4.835078        -0.107373
 H        -4.183259         2.683605         0.864794
 H        -2.008049         3.888906         2.630200
 H        -1.644671         1.332424         3.324234
 H        -3.311334         1.070058         2.558636
 H        -2.258298         0.572367         0.352590
 H         0.647665         1.289973         1.348159
 H        -0.383000        -0.335555         1.595752
 H         0.191879        -0.878902        -0.583267
 H        -0.930610         3.159490         0.025873
