19
Iteration:  2680charge 0 multiplicity 1
 O        -3.707237         4.451588         0.604315
 C        -3.241111         3.115949         0.899463
 C        -2.347112         3.100977         2.110670
 C        -2.077313         1.668610         2.564828
 C        -1.619919         1.270247         1.139447
 C        -0.084878         0.844762         0.930705
 C         0.388930         0.818972        -0.445588
 O        -0.083967         0.352173        -1.476082
 C        -1.816330         2.737533         0.697445
 H        -3.788039         4.460710        -0.339640
 H        -4.051833         2.434435         0.872118
 H        -2.344002         4.046040         2.855113
 H        -1.471425         1.548713         3.401878
 H        -2.939730         0.855032         2.596780
 H        -2.187840         0.611009         0.500889
 H         0.563731         1.524581         1.660027
 H        -0.121981        -0.157454         1.298113
 H         1.342293         1.432681        -0.523946
 H        -1.109941         3.297853         0.026916
