19
Iteration:  3721
 O        -3.460562         4.769058         2.007989
 C        -2.945584         3.834154         1.089641
 C        -2.947243         2.447067         1.600132
 C        -2.632778         1.506538         0.478283
 C        -1.316835         2.208959         0.094768
 C        -0.132998         1.346277         0.306200
 C        -0.213023         0.022405        -0.314227
 O         0.531171        -0.920009        -0.015557
 C        -1.603372         3.193269         1.327766
 H        -3.024261         5.600916         1.906865
 H        -3.170972         4.092014         0.033642
 H        -3.421243         2.244366         2.552016
 H        -2.540787         0.426293         0.827127
 H        -3.365928         1.556158        -0.342655
 H        -1.317523         2.799753        -0.936137
 H         0.790720         1.869453        -0.115641
 H         0.003308         1.313029         1.448124
 H        -1.027609        -0.139604        -1.017071
 H        -0.868545         3.510365         2.022266
