19
Iteration:  2744
 O        -3.830293         4.524926         0.764622
 C        -3.313030         3.244841         1.051589
 C        -2.393729         2.993083         2.163630
 C        -2.053734         1.567337         2.415276
 C        -1.625651         1.496426         0.827014
 C        -0.200257         0.917109         0.844661
 C         0.482363         0.759054        -0.499672
 O         0.211072        -0.076052        -1.343054
 C        -1.896233         2.973758         0.732676
 H        -3.996967         4.678799        -0.193546
 H        -3.986748         2.324353         0.847263
 H        -2.208661         3.916144         2.866131
 H        -1.147852         1.519716         3.142964
 H        -2.696257         0.850247         2.838642
 H        -2.391466         0.859361         0.282647
 H         0.449092         1.507027         1.502606
 H        -0.262810        -0.115626         1.163479
 H         1.104094         1.629277        -0.795106
 H        -1.287677         3.815971         0.348157
