19
Iteration:  4162
 O        -3.410241         4.799407         2.035572
 C        -2.742054         4.033874         1.027988
 C        -3.139563         2.572999         0.993954
 C        -2.417473         1.696936        -0.081144
 C        -1.024840         2.125173         0.538059
 C        -0.156257         0.908432         1.195184
 C         0.355506        -0.032729         0.065725
 O        -0.361444        -0.675926        -0.740057
 C        -1.793602         2.985512         1.573977
 H        -2.781702         5.411774         2.399851
 H        -2.417629         4.640463         0.109396
 H        -4.039610         2.373038         1.551310
 H        -2.566570         0.650749        -0.021057
 H        -2.527595         1.895081        -1.142422
 H        -0.401171         2.772867        -0.241057
 H         0.789647         1.116650         1.658209
 H        -0.888455         0.427923         1.854984
 H         1.426304         0.003422        -0.136342
 H        -1.575334         2.823716         2.695285
