19
Iteration:   737charge 0 multiplicity 1
 O        -3.159769         5.006396         1.670659
 C        -2.908233         3.794512         0.859868
 C        -3.298560         2.631047         1.611633
 C        -2.966082         1.377570         0.761545
 C        -1.502111         1.906094         0.449149
 C        -0.399552         0.965601         0.723292
 C         0.003022        -0.019328        -0.303605
 O         1.187743        -0.319828        -0.463911
 C        -1.809839         2.950620         1.409119
 H        -3.274148         5.782926         1.062992
 H        -2.974020         3.822189        -0.271485
 H        -3.961882         2.672072         2.516144
 H        -2.842649         0.576946         1.506327
 H        -3.690395         1.032685        -0.028990
 H        -1.374958         2.433918        -0.515061
 H         0.575206         1.473302         0.784262
 H        -0.546575         0.418951         1.642700
 H        -0.830302        -0.480445        -0.914872
 H        -1.236913         3.596639         2.004646
