19
Iteration:  1979charge 0 multiplicity 1
 O        -3.641989         4.732842         1.006803
 C        -3.337656         3.361131         0.929299
 C        -2.455679         3.049225         2.120152
 C        -2.402790         1.430319         2.406769
 C        -1.640679         1.417878         0.920838
 C        -0.193926         0.986719         0.740821
 C         0.015859         0.126028        -0.522624
 O         0.858371         0.277226        -1.367419
 C        -1.873920         2.915472         0.686532
 H        -3.798648         4.951333         0.041316
 H        -4.226441         2.799282         0.705014
 H        -2.265972         3.895058         2.841953
 H        -1.759524         1.269523         3.314019
 H        -3.307778         0.972243         2.461927
 H        -2.300318         0.948485         0.094504
 H         0.485232         1.895531         0.905412
 H        -0.127888         0.306964         1.592799
 H        -0.661343        -0.734015        -0.603414
 H        -1.138719         3.695047         0.211585
