19
Iteration:  2269
 O        -3.703091         4.263481         0.393503
 C        -3.174170         3.073121         0.900237
 C        -2.530434         3.068262         2.258537
 C        -2.086223         1.656386         2.568737
 C        -1.429979         1.442158         1.156172
 C        -0.093663         0.628629         0.973577
 C         0.397588         0.842041        -0.513273
 O        -0.239109         0.498593        -1.471956
 C        -1.723143         2.930846         0.836757
 H        -3.497959         4.449101        -0.572035
 H        -3.814067         2.182205         0.682534
 H        -2.397097         3.967857         2.762172
 H        -1.372880         1.711623         3.534979
 H        -2.873299         0.902906         2.615972
 H        -2.190561         0.726948         0.627491
 H         0.671479         0.876885         1.670601
 H        -0.359991        -0.387883         0.975294
 H         1.246477         1.515596        -0.565083
 H        -1.003312         3.764446         0.515674
