19
Iteration:  1413
 O        -3.738524         4.585561         1.601344
 C        -3.126179         3.530678         1.007531
 C        -2.514115         2.572934         1.951456
 C        -2.326046         1.247078         1.210657
 C        -1.409280         1.938781         0.252804
 C         0.199923         1.555657         0.314471
 C         0.065357         0.058157         0.302376
 O        -0.090315        -0.436018        -0.771282
 C        -1.572341         3.349949         0.872701
 H        -3.906496         5.284100         0.924192
 H        -3.766891         3.141077         0.124406
 H        -2.871727         2.662724         2.945335
 H        -2.006269         0.402883         1.796324
 H        -3.256277         0.839117         0.835112
 H        -1.708882         2.179409        -0.807321
 H         0.790824         2.139891        -0.449457
 H         0.605619         1.890146         1.239738
 H         0.115450        -0.503889         1.297311
 H        -0.877689         4.106986         1.081962
