19
Iteration:    33charge 0 multiplicity 1
 O        -3.493361         4.956789         1.681952
 C        -2.761111         3.952230         0.989244
 C        -3.142236         2.440500         1.069654
 C        -2.258023         1.811890        -0.043261
 C        -0.955238         2.172221         0.820157
 C        -0.193265         0.830440         1.266886
 C         0.227965         0.200607        -0.136576
 O        -0.052337        -0.919157        -0.615283
 C        -1.957636         2.936987         1.766915
 H        -4.427195         4.884709         1.338073
 H        -2.346170         4.255592         0.048475
 H        -4.188907         2.293375         1.119899
 H        -2.327506         0.775287        -0.243208
 H        -2.291854         2.433206        -0.888355
 H        -0.214828         2.854977         0.317428
 H         0.530817         0.984301         2.014562
 H        -0.967406         0.189532         1.670518
 H         0.792524         0.868532        -0.760930
 H        -1.683818         3.287362         2.748132
