19
Iteration:  3050charge 0 multiplicity 1
 O        -3.238750         4.731043         0.752028
 C        -3.237783         3.287142         1.000969
 C        -2.199761         2.983799         2.046087
 C        -2.440193         1.559203         2.459044
 C        -1.974891         1.083390         0.985317
 C        -0.481542         0.542906         0.865722
 C        -0.159670         0.594235        -0.609209
 O         0.866556         0.852374        -1.217918
 C        -1.875512         2.624642         0.677041
 H        -3.727050         4.688183        -0.051160
 H        -4.149621         2.792360         0.756543
 H        -1.706764         3.737554         2.721393
 H        -1.711399         1.137181         3.374094
 H        -3.406622         1.339524         2.938701
 H        -2.848570         0.516597         0.536744
 H         0.241119         1.153115         1.387117
 H        -0.337704        -0.419661         1.224548
 H        -1.027131         0.186664        -1.178714
 H        -1.231941         3.053113        -0.179260
