19
Iteration:  2387charge 0 multiplicity 1
 O        -3.643238         4.365176         0.464913
 C        -3.270363         3.107557         1.038463
 C        -2.181776         3.084151         2.039869
 C        -2.044863         1.623399         2.546502
 C        -1.678036         1.119735         1.121230
 C        -0.141539         0.941324         1.023816
 C         0.326635         0.506213        -0.349644
 O         0.040685         1.081157        -1.366583
 C        -2.072444         2.481109         0.493614
 H        -3.886412         4.125917        -0.438529
 H        -4.109729         2.451565         1.238961
 H        -1.619408         3.890119         2.368196
 H        -1.096427         1.458450         3.169599
 H        -2.828064         1.078275         3.037966
 H        -2.301035         0.250096         0.908533
 H         0.286824         2.017088         1.230816
 H         0.198806         0.159550         1.800969
 H         0.984873        -0.342813        -0.357454
 H        -1.579101         3.030132        -0.337307
