19
Iteration:  3095
 O        -3.155501         4.662783         0.530844
 C        -3.191250         3.330571         0.928924
 C        -2.233077         2.984195         2.111901
 C        -2.240983         1.505132         2.546360
 C        -1.958320         1.103703         0.993368
 C        -0.566605         0.348447         0.812493
 C        -0.200226         0.402675        -0.671987
 O         0.607058         1.274304        -1.002455
 C        -1.882103         2.609485         0.744017
 H        -2.818315         4.648798        -0.352803
 H        -4.116544         2.800300         0.864285
 H        -1.980137         3.829578         2.828290
 H        -1.198239         1.261491         3.162240
 H        -3.096985         1.160884         3.165234
 H        -2.731704         0.530372         0.365015
 H         0.281481         0.748482         1.308349
 H        -0.621514        -0.678171         1.061782
 H        -0.884778        -0.193253        -1.336559
 H        -1.094598         3.122717         0.077092
