19
Iteration:  3754
 O        -3.259817         4.894724         2.049858
 C        -3.004432         3.865672         1.089361
 C        -3.137958         2.449690         1.552598
 C        -2.823858         1.469278         0.500255
 C        -1.391491         2.077694         0.117062
 C        -0.126203         1.310694         0.406145
 C        -0.117695         0.002895        -0.211436
 O         0.751373        -0.883758        -0.194289
 C        -1.703614         3.193639         1.296792
 H        -2.558669         5.520950         1.798577
 H        -3.168253         4.169488         0.024249
 H        -3.953809         2.377352         2.207639
 H        -2.781447         0.378165         0.880851
 H        -3.450528         1.521977        -0.406544
 H        -1.317226         2.594655        -0.967350
 H         0.821698         1.826569        -0.012230
 H         0.067132         1.344458         1.569571
 H        -1.175939        -0.377743        -0.589926
 H        -0.989701         3.600090         2.041725
