19
Iteration:   450charge 0 multiplicity 1
 O        -3.353378         4.735501         1.753251
 C        -2.781267         3.863729         0.763433
 C        -3.122536         2.479744         1.361223
 C        -2.670854         1.453781         0.276218
 C        -1.187240         1.952965         0.491804
 C        -0.192398         1.093739         1.195819
 C         0.155093        -0.063795         0.347909
 O         0.200483        -0.186570        -0.889074
 C        -1.735352         2.995684         1.401437
 H        -3.380723         5.591427         1.324256
 H        -3.036132         4.113121        -0.265040
 H        -3.919551         2.393919         2.069540
 H        -2.757271         0.380579         0.706024
 H        -3.257862         1.619784        -0.677562
 H        -0.739457         2.266666        -0.503053
 H         0.648174         1.870418         1.312611
 H        -0.474938         0.781190         2.210876
 H         0.614874        -0.878182         0.937062
 H        -1.157956         3.352497         2.214996
