19
Iteration:   514charge 0 multiplicity 1
 O        -3.404794         4.916421         1.668771
 C        -2.895575         3.894269         0.913502
 C        -3.205607         2.541222         1.547036
 C        -2.881339         1.583243         0.382659
 C        -1.419588         1.871276         0.480989
 C        -0.162856         0.956203         1.047972
 C         0.259335        -0.313607         0.224630
 O         0.691250        -0.284048        -0.901642
 C        -1.747974         3.151998         1.326426
 H        -2.846950         5.632781         1.990834
 H        -3.182809         3.978754        -0.212860
 H        -3.840274         2.431072         2.424869
 H        -3.045910         0.483162         0.530931
 H        -3.404766         1.958444        -0.489123
 H        -0.959534         2.369200        -0.477350
 H         0.645050         1.553663         1.422096
 H        -0.554575         0.515655         1.893898
 H         0.105674        -1.323035         0.714043
 H        -1.165697         3.654483         2.055554
