19
Iteration:  3890charge 0 multiplicity 1
 O        -2.985633         5.072503         1.602246
 C        -2.701205         3.837931         0.883613
 C        -3.311718         2.646108         1.586831
 C        -3.085635         1.450918         0.625964
 C        -1.583062         1.721637         0.557800
 C        -0.546990         0.691425         0.992256
 C        -0.070954        -0.048410        -0.265516
 O         1.082672        -0.045827        -0.759783
 C        -1.751701         2.933308         1.523501
 H        -2.167949         5.582898         1.576007
 H        -2.734878         4.046309        -0.149822
 H        -4.019251         2.823827         2.487027
 H        -3.168987         0.517987         1.046521
 H        -3.657324         1.594548        -0.256611
 H        -1.144858         2.198821        -0.376151
 H         0.351199         1.238374         1.415100
 H        -0.872177        -0.083516         1.717210
 H        -0.810975        -0.720954        -0.802704
 H        -1.003054         3.179282         2.224138
