19
Iteration:  1708charge 0 multiplicity 1
 O        -3.370207         4.681715         0.808345
 C        -3.128721         3.293064         0.921174
 C        -2.354558         2.938926         2.067590
 C        -2.396369         1.543188         2.305959
 C        -1.741348         1.271297         0.903996
 C        -0.320325         0.768782         0.980393
 C         0.405224         0.449251        -0.260039
 O         0.010001         0.650824        -1.420715
 C        -1.784320         2.739180         0.647298
 H        -3.496056         4.819009        -0.134825
 H        -3.974011         2.560986         0.644255
 H        -2.116743         3.727010         2.744697
 H        -1.664870         1.186766         3.151681
 H        -3.392675         1.031548         2.478089
 H        -2.334745         0.547306         0.147636
 H         0.360635         1.604133         1.366423
 H        -0.384767        -0.055938         1.818534
 H         1.227841        -0.285266        -0.157876
 H        -0.946407         3.118484         0.111577
