19
Iteration:   147charge 0 multiplicity 1
 O        -3.215247         4.794405         1.878478
 C        -2.761024         3.898061         0.958296
 C        -3.274674         2.512270         0.954973
 C        -2.545700         1.608052        -0.041305
 C        -1.139374         2.086995         0.497224
 C        -0.279716         1.098469         1.081564
 C         0.432765         0.171618         0.204866
 O        -0.061665        -0.678128        -0.511895
 C        -1.839183         2.875656         1.575715
 H        -4.011002         5.263592         1.501124
 H        -2.549684         4.448811        -0.016778
 H        -4.162711         2.296378         1.606255
 H        -2.727031         0.565493         0.351182
 H        -2.757622         1.707274        -1.050061
 H        -0.654241         2.892298        -0.056846
 H         0.512434         1.671224         1.606963
 H        -0.784307         0.530119         1.885429
 H         1.578472         0.313482         0.183353
 H        -1.457664         3.007028         2.571450
