19
Iteration:  1469charge 0 multiplicity 1
 O        -3.765180         4.795247         1.376684
 C        -3.224140         3.540668         0.941200
 C        -2.682873         2.598014         2.013440
 C        -2.247558         1.227641         1.542332
 C        -1.332945         1.917308         0.414448
 C         0.168295         1.381004         0.528832
 C         0.397902         0.010429        -0.036221
 O        -0.174481        -0.476893        -0.975316
 C        -1.758425         3.346734         1.020213
 H        -3.430999         5.508496         0.793844
 H        -3.915980         3.138540         0.120023
 H        -2.713960         2.839240         3.048802
 H        -1.706274         0.731087         2.333621
 H        -3.129061         0.680672         1.130590
 H        -1.448684         2.161352        -0.704024
 H         0.693242         2.035837        -0.248821
 H         0.583175         1.397497         1.532492
 H         1.265573        -0.630797         0.431107
 H        -1.355234         4.358746         1.250812
