19
Iteration:  4622
 O        -3.081071         4.861704         2.082485
 C        -2.278619         4.068389         1.128800
 C        -3.131063         2.915417         0.721020
 C        -2.398781         2.224053        -0.390059
 C        -1.256070         1.790731         0.549373
 C        -1.319508         0.269139         0.905881
 C        -0.306033        -0.487722         0.038756
 O         0.770202        -0.013751        -0.175674
 C        -1.835893         2.733182         1.643938
 H        -2.458683         5.280494         2.674088
 H        -1.834958         4.610228         0.359478
 H        -4.157660         2.763432         1.132483
 H        -2.756957         1.348218        -0.855277
 H        -2.078573         2.887508        -1.191707
 H        -0.213240         2.206038         0.238043
 H        -0.944675        -0.026736         1.949213
 H        -2.359841        -0.041571         0.836041
 H        -0.415937        -1.500662        -0.268809
 H        -1.792346         2.347828         2.683584
