19
Iteration:  3693charge 0 multiplicity 1
 O        -3.547453         4.723498         2.038573
 C        -3.033489         3.815646         1.083199
 C        -2.832614         2.443911         1.640677
 C        -2.551188         1.494611         0.500242
 C        -1.230260         2.342203         0.123411
 C        -0.075060         1.351863         0.265514
 C        -0.102578        -0.025299        -0.440932
 O         0.318574        -1.015503         0.085664
 C        -1.626844         3.297892         1.274781
 H        -3.270975         5.613990         1.861770
 H        -3.332743         4.054281         0.060326
 H        -3.030005         2.203643         2.673985
 H        -2.420061         0.480276         0.827126
 H        -3.306418         1.505313        -0.344329
 H        -1.201782         2.846830        -0.773584
 H         0.820023         1.833098        -0.099333
 H         0.003979         1.186629         1.299479
 H        -0.641174        -0.015736        -1.538524
 H        -0.858902         3.871115         1.936099
