19
Iteration:  2266charge 0 multiplicity 1
 O        -3.713375         4.278641         0.401389
 C        -3.165720         3.080835         0.922904
 C        -2.539937         3.043838         2.251924
 C        -2.091138         1.652906         2.563861
 C        -1.436801         1.409048         1.169507
 C        -0.100708         0.652919         0.965637
 C         0.408226         0.839602        -0.510783
 O        -0.234166         0.479405        -1.473939
 C        -1.706441         2.935375         0.809596
 H        -3.496798         4.406120        -0.515908
 H        -3.694384         2.222993         0.695920
 H        -2.479481         4.065170         2.755315
 H        -1.409424         1.753399         3.506090
 H        -2.934303         0.933434         2.663627
 H        -2.105742         0.864015         0.563721
 H         0.727325         0.877186         1.681842
 H        -0.388550        -0.368971         0.998969
 H         1.178800         1.610795        -0.592521
 H        -0.993325         3.730240         0.493304
