19
Iteration:  4438
 O        -3.341296         5.001811         2.118987
 C        -2.564725         4.059133         1.221790
 C        -3.206603         2.829869         0.723803
 C        -2.335479         2.236197        -0.436635
 C        -1.089399         2.042283         0.666549
 C        -0.871056         0.559638         0.919998
 C        -0.077708        -0.042903        -0.180555
 O         0.602923        -1.052719        -0.208321
 C        -1.928340         2.794980         1.745282
 H        -2.530392         5.330953         2.571395
 H        -1.988083         4.564292         0.374370
 H        -4.216806         2.453363         0.953411
 H        -2.634362         1.260699        -0.860112
 H        -2.117005         2.915099        -1.370334
 H        -0.174273         2.522645         0.423696
 H        -0.379557         0.273447         1.893934
 H        -1.741719        -0.121039         0.977168
 H         0.066210         0.727489        -1.002079
 H        -1.904867         2.704763         2.789470
