19
Iteration:  2559
 O        -3.601864         4.270496         0.350256
 C        -3.312795         2.997047         0.968613
 C        -2.378087         3.165744         2.149844
 C        -1.897163         1.679043         2.621895
 C        -1.626483         1.266947         1.178206
 C        -0.133820         0.716935         0.950327
 C         0.284621         0.472501        -0.444693
 O        -0.081486         1.145418        -1.385992
 C        -1.893281         2.644710         0.663050
 H        -3.713215         4.207669        -0.635511
 H        -4.014385         2.252178         0.880985
 H        -2.146167         4.070357         2.715190
 H        -1.137075         1.899329         3.248893
 H        -2.601978         1.004729         3.262803
 H        -2.282010         0.459160         0.990017
 H         0.553435         1.487717         1.461735
 H        -0.118504        -0.284611         1.397774
 H         0.863801        -0.533429        -0.518550
 H        -1.326745         3.091510        -0.119660
