19
Iteration:  4064charge 0 multiplicity 1
 O        -3.149690         5.029828         1.805974
 C        -2.784429         3.968730         0.962559
 C        -3.215819         2.674473         1.324534
 C        -2.804495         1.609980         0.186290
 C        -1.301083         1.873331         0.571782
 C        -0.415188         0.628247         1.136251
 C         0.237158        -0.327992         0.197375
 O         0.392284        -0.069673        -1.012311
 C        -1.779181         2.944026         1.513539
 H        -2.380832         5.586904         1.902078
 H        -2.782657         4.356060        -0.036889
 H        -4.072865         2.591281         1.919581
 H        -3.099265         0.671932         0.563720
 H        -3.168687         1.604329        -0.885356
 H        -0.700174         2.335200        -0.203701
 H         0.417906         1.069597         1.744752
 H        -0.908040        -0.109152         1.803839
 H         0.434000        -1.358350         0.553487
 H        -1.180542         3.042744         2.438236
