19
Iteration:   748
 O        -3.230686         4.986631         1.647316
 C        -2.886720         3.920549         0.931099
 C        -3.259018         2.591067         1.632459
 C        -3.060298         1.364916         0.773201
 C        -1.550089         1.906818         0.405975
 C        -0.338751         1.005485         0.694066
 C         0.057555        -0.075919        -0.354022
 O         1.221647        -0.398926        -0.449556
 C        -1.776167         3.069174         1.413567
 H        -3.404587         5.740806         1.092769
 H        -3.212445         4.031623        -0.142468
 H        -3.760581         2.620534         2.648729
 H        -3.027301         0.382180         1.246789
 H        -3.644840         1.289829        -0.181326
 H        -1.430634         2.225758        -0.633028
 H         0.488439         1.641442         1.067720
 H        -0.626233         0.362264         1.527520
 H        -0.720157        -0.789156        -0.682154
 H        -1.039479         3.296256         2.159381
