19
Iteration:  2478
 O        -3.935984         4.303732         0.664600
 C        -3.276326         3.039075         0.966086
 C        -2.242778         3.249309         2.019186
 C        -1.818023         1.806644         2.448640
 C        -1.659154         1.288104         0.999941
 C        -0.356628         0.553607         0.914642
 C         0.359570         0.311464        -0.368755
 O         0.274847         1.123860        -1.242979
 C        -1.906997         2.662261         0.517621
 H        -4.464163         4.258795        -0.134562
 H        -3.871537         2.196001         1.103237
 H        -2.199337         4.299351         2.483723
 H        -0.803398         2.027115         3.008763
 H        -2.572111         1.320538         3.061741
 H        -2.369091         0.542617         0.775427
 H         0.478024         1.031616         1.600958
 H        -0.549107        -0.398395         1.456242
 H         0.896859        -0.708986        -0.613577
 H        -1.496862         3.287431        -0.288975
