19
Iteration:  1046charge 0 multiplicity 1
 O        -3.612928         4.790353         1.795766
 C        -3.125683         3.744647         1.007967
 C        -2.717902         2.385695         1.815536
 C        -2.595013         1.266654         0.821569
 C        -1.386176         2.089591         0.073456
 C        -0.020401         1.393830         0.482774
 C         0.455499         0.279266        -0.297979
 O         0.061496        -0.853390        -0.144319
 C        -1.719170         3.278799         1.070100
 H        -3.741536         5.645324         1.348865
 H        -3.593499         3.684250        -0.027331
 H        -2.757150         2.325349         2.977051
 H        -2.267410         0.390088         1.212762
 H        -3.380283         1.011749         0.152337
 H        -1.618150         2.448300        -0.944009
 H         0.698188         2.185205         0.312449
 H         0.000372         1.168144         1.582058
 H         1.407382         0.536466        -0.952968
 H        -0.955420         3.914486         1.472374
