19
Iteration:  3403charge 0 multiplicity 1
 O        -3.441488         4.903843         1.212255
 C        -3.086947         3.582310         0.968420
 C        -2.753773         2.713897         2.154110
 C        -2.605599         1.292516         1.772313
 C        -1.477999         1.659096         0.734013
 C        -0.016601         1.094644         0.772462
 C         0.452123         0.149118        -0.446361
 O        -0.151653        -0.222898        -1.386039
 C        -1.635583         3.176773         1.148623
 H        -3.374163         5.390864         0.419784
 H        -3.580773         3.196881         0.079503
 H        -2.765026         2.849630         3.233958
 H        -2.148069         0.658641         2.600180
 H        -3.457634         0.767383         1.404380
 H        -1.823684         1.664565        -0.226380
 H         0.735348         1.892815         0.590954
 H         0.319274         0.519022         1.578064
 H         1.542560        -0.252495        -0.361290
 H        -0.808179         3.989507         1.403862
