19
Iteration:   893
 O        -3.605916         4.847697         1.948370
 C        -3.112978         3.841287         1.041763
 C        -3.029739         2.489032         1.690299
 C        -2.672048         1.452623         0.449703
 C        -1.342484         2.221458         0.196916
 C        -0.078616         1.351476         0.205059
 C        -0.069621        -0.151366        -0.202552
 O         0.892368        -0.876744        -0.047442
 C        -1.728090         3.264384         1.303219
 H        -3.393699         5.745030         1.579528
 H        -3.461635         4.063160         0.021517
 H        -3.491830         2.458580         2.623676
 H        -2.348376         0.563939         0.921781
 H        -3.404933         1.170455        -0.391820
 H        -1.372505         2.696495        -0.785884
 H         0.921507         1.676812        -0.156735
 H         0.048229         1.024490         1.283340
 H        -0.982759        -0.759568        -0.505552
 H        -1.002388         3.768053         2.027581
