19
Iteration:  4636
 O        -3.092523         4.859703         2.096255
 C        -2.320695         4.141083         1.238795
 C        -3.092690         3.028746         0.667860
 C        -2.441506         2.124610        -0.441085
 C        -1.254788         1.757445         0.543388
 C        -1.271445         0.294038         0.890156
 C        -0.224340        -0.475323         0.151905
 O         0.797364        -0.056817        -0.265796
 C        -1.869239         2.700361         1.616152
 H        -2.571447         5.240849         2.839565
 H        -1.515791         4.716192         0.716900
 H        -4.135943         3.022498         0.926730
 H        -3.222429         1.420971        -0.696982
 H        -2.164713         2.684435        -1.320655
 H        -0.137402         1.802477         0.123426
 H        -1.161347         0.190254         2.012619
 H        -2.238132        -0.216785         0.672743
 H        -0.663243        -1.453298        -0.058381
 H        -2.062656         2.494146         2.725464
