19
Iteration:  3025
 O        -3.360407         4.748374         0.836772
 C        -3.217031         3.368239         1.023195
 C        -2.249343         2.996365         2.157829
 C        -2.334542         1.472542         2.408715
 C        -1.925204         1.201909         0.925724
 C        -0.445860         0.714414         0.770156
 C        -0.181908         0.497430        -0.685935
 O         0.956207         0.633864        -1.094328
 C        -1.984710         2.681835         0.559493
 H        -3.750536         4.774915        -0.043523
 H        -4.168292         2.828260         0.924769
 H        -1.801087         3.678861         2.774590
 H        -1.643225         0.955850         3.076277
 H        -3.311111         1.134224         2.854187
 H        -2.661671         0.495798         0.532465
 H         0.485461         1.275932         1.211539
 H        -0.604415        -0.205181         1.414297
 H        -1.079298         0.313209        -1.342738
 H        -1.229929         3.058772        -0.011586
