19
Iteration:  3851
 O        -3.071191         5.067794         1.758218
 C        -2.879312         3.882866         1.015886
 C        -3.202535         2.570518         1.678330
 C        -2.941971         1.519744         0.540423
 C        -1.464498         1.894710         0.403586
 C        -0.563102         0.734758         0.858413
 C        -0.114906        -0.013987        -0.291896
 O         1.066871        -0.289734        -0.548163
 C        -1.703608         3.008227         1.290588
 H        -2.520675         5.784263         1.390887
 H        -3.164022         3.871385        -0.118341
 H        -3.617100         2.612839         2.631037
 H        -3.062544         0.334630         0.822561
 H        -3.664788         1.443047        -0.354415
 H        -1.157910         2.026352        -0.587921
 H         0.250564         1.188106         1.395455
 H        -0.962864        -0.024522         1.571100
 H        -0.918216        -0.668444        -0.832831
 H        -0.962580         3.419813         2.003350
