19
Iteration:  4599charge 0 multiplicity 1
 O        -2.928790         4.888475         2.041469
 C        -2.441787         3.963322         1.092193
 C        -3.167442         2.743214         0.778885
 C        -2.367720         2.221664        -0.406619
 C        -1.183435         1.865663         0.637504
 C        -1.301381         0.372799         0.860105
 C        -0.375292        -0.354265         0.014281
 O         0.748930        -0.044733        -0.124498
 C        -1.862411         2.644264         1.656647
 H        -2.103989         5.366435         2.365758
 H        -1.852977         4.491406         0.416289
 H        -4.244129         2.493935         1.009481
 H        -2.621444         1.371838        -1.045177
 H        -2.082649         3.063619        -1.041744
 H        -0.126854         2.260094         0.435531
 H        -0.937084         0.154702         1.918913
 H        -2.285407        -0.090189         0.744723
 H        -0.783878        -1.166248        -0.549240
 H        -1.986566         2.669636         2.720874
