19
Iteration:  4810charge 0 multiplicity 1
 O        -3.225356         4.884712         1.808778
 C        -2.312494         3.955772         1.304978
 C        -2.867461         2.968700         0.389872
 C        -1.663115         2.287887        -0.290443
 C        -1.138087         1.801616         1.108026
 C        -1.078682         0.283127         1.268749
 C        -0.103433        -0.249981         0.237521
 O        -0.045871        -0.061922        -0.927205
 C        -2.304359         2.454249         1.738526
 H        -2.824689         5.153387         2.689694
 H        -1.406877         4.373024         0.913261
 H        -3.948728         3.148597         0.237802
 H        -1.955368         1.524838        -0.977945
 H        -0.959889         2.988684        -0.798302
 H        -0.172404         2.176298         1.267977
 H        -0.960539        -0.103078         2.315558
 H        -1.982423        -0.128904         0.882313
 H         0.650330        -1.011174         0.810259
 H        -2.819382         2.293373         2.673559
