19
Iteration:  1108charge 0 multiplicity 1
 O        -3.687418         4.675604         1.612164
 C        -3.096615         3.605384         0.905927
 C        -2.754229         2.456814         1.803707
 C        -2.364934         1.172488         0.990832
 C        -1.327130         2.011619         0.307591
 C         0.150079         1.516736         0.585838
 C         0.376480         0.336546        -0.388206
 O        -0.288695        -0.615430        -0.238584
 C        -1.593763         3.244089         1.094603
 H        -3.239958         5.495169         1.360519
 H        -3.660678         3.560321         0.010581
 H        -3.272137         2.216485         2.748553
 H        -2.117383         0.411964         1.790313
 H        -3.046804         0.680363         0.201117
 H        -1.258351         2.178732        -0.718709
 H         0.984744         2.165830         0.417262
 H         0.151407         1.300638         1.666548
 H         1.029310         0.459119        -1.370821
 H        -0.979512         4.014718         1.543916
