19
Iteration:  2334charge 0 multiplicity 1
 O        -3.627834         4.352108         0.505772
 C        -3.262929         3.005654         0.830744
 C        -2.323753         3.014473         1.994740
 C        -2.093728         1.647724         2.617933
 C        -1.520043         1.219781         1.118295
 C        -0.025868         0.851627         1.077354
 C         0.325990         0.592878        -0.368962
 O        -0.311921         0.982531        -1.341679
 C        -1.749086         2.633694         0.579215
 H        -3.763945         4.224510        -0.440321
 H        -3.979361         2.262666         0.764283
 H        -2.386095         3.860609         2.585757
 H        -1.147748         1.669376         3.369959
 H        -3.035701         1.128714         2.885290
 H        -2.203613         0.476039         0.805800
 H         0.610129         1.714296         1.438247
 H         0.141096         0.003293         1.704523
 H         1.405451         0.090753        -0.619494
 H        -1.158303         3.241546        -0.147197
