19
Iteration:   785charge 0 multiplicity 1
 O        -3.429211         5.041514         1.780630
 C        -3.096557         3.930486         1.037968
 C        -3.143098         2.625686         1.731009
 C        -2.980503         1.515483         0.601484
 C        -1.497870         1.907087         0.246675
 C        -0.296701         1.026789         0.709599
 C         0.082454        -0.199219        -0.297472
 O         1.244273        -0.545047        -0.375578
 C        -1.705962         3.093001         1.219156
 H        -3.116035         5.822082         1.320522
 H        -3.573813         3.850696         0.108798
 H        -3.271706         2.435130         2.773526
 H        -3.101601         0.543045         1.099441
 H        -3.890831         1.569792        -0.090243
 H        -1.345492         2.122567        -0.905661
 H         0.653647         1.453112         0.787023
 H        -0.439420         0.473886         1.609869
 H        -0.796779        -0.713334        -0.794174
 H        -0.791982         3.295978         1.858750
