19
Iteration:  3423charge 0 multiplicity 1
 O        -3.471806         4.890460         1.313537
 C        -3.078361         3.505028         0.943157
 C        -2.708037         2.747970         2.151695
 C        -2.586280         1.273480         1.693293
 C        -1.363854         1.682745         0.594231
 C         0.059771         1.142670         0.726338
 C         0.399320         0.093693        -0.313199
 O        -0.246519        -0.149258        -1.296700
 C        -1.624819         3.081348         1.119413
 H        -3.346277         5.483795         0.543053
 H        -3.835284         3.200746         0.184887
 H        -3.036017         3.317271         3.064743
 H        -2.222338         0.483129         2.374137
 H        -3.394704         0.841878         0.955139
 H        -1.751046         1.545155        -0.448448
 H         0.737020         2.025242         0.560827
 H         0.245925         0.932123         1.725282
 H         1.364415        -0.321637        -0.128210
 H        -0.781748         3.897766         1.113820
