19
Iteration:  4426charge 0 multiplicity 1
 O        -3.367867         4.905829         2.110128
 C        -2.590055         4.187486         1.237393
 C        -3.114985         2.789518         0.789118
 C        -2.252881         2.168694        -0.351844
 C        -1.117280         2.078128         0.589825
 C        -0.934166         0.544811         0.891368
 C         0.032560         0.009445        -0.219028
 O         0.510721        -1.086941        -0.155511
 C        -1.895751         2.834497         1.661624
 H        -2.947645         5.527493         2.688332
 H        -2.065400         4.901394         0.520603
 H        -4.127072         2.491947         1.072078
 H        -2.634550         1.264638        -0.767021
 H        -2.041193         2.929730        -1.215119
 H        -0.168148         2.448750         0.275264
 H        -0.456660         0.349046         1.907523
 H        -1.925742         0.105748         0.826643
 H         0.058325         0.600948        -1.179853
 H        -1.819620         2.489384         2.660969
