19
Iteration:   371charge 0 multiplicity 1
 O        -3.546447         4.777835         1.417224
 C        -2.720429         3.798443         0.934969
 C        -3.181383         2.441412         1.259163
 C        -2.434253         1.589721         0.229814
 C        -1.038056         2.120950         0.717234
 C        -0.032051         1.056621         1.210896
 C         0.367942         0.086925         0.073716
 O        -0.317008        -0.434289        -0.789017
 C        -1.754173         2.933646         1.695050
 H        -3.059986         5.272434         2.079446
 H        -2.401684         4.048842        -0.125543
 H        -4.161448         2.173031         1.742524
 H        -2.590609         0.529654         0.458364
 H        -2.820579         1.761096        -0.802913
 H        -0.543224         2.804856        -0.083783
 H         0.934131         1.622207         1.534829
 H        -0.401509         0.560437         2.117219
 H         1.360022        -0.439439         0.216539
 H        -1.340509         3.417133         2.566427
