19
Iteration:   451
 O        -3.350702         4.738001         1.752334
 C        -2.788841         3.856280         0.771902
 C        -3.124635         2.484340         1.361694
 C        -2.671863         1.452156         0.278022
 C        -1.185311         1.950560         0.482097
 C        -0.195228         1.101965         1.191334
 C         0.151977        -0.065978         0.345505
 O         0.211018        -0.192058        -0.893641
 C        -1.727770         2.998582         1.402904
 H        -3.378968         5.579640         1.315026
 H        -3.011351         4.097598        -0.243738
 H        -3.952430         2.411528         2.064584
 H        -2.755500         0.379771         0.714386
 H        -3.274272         1.603932        -0.677124
 H        -0.763770         2.279831        -0.488947
 H         0.651408         1.875618         1.333751
 H        -0.534724         0.777176         2.235660
 H         0.591332        -0.877484         0.957633
 H        -1.157496         3.386698         2.257783
