19
Iteration:  2102charge 0 multiplicity 1
 O        -3.833100         4.699139         1.169559
 C        -3.481211         3.372197         1.177814
 C        -2.328777         3.049984         2.054961
 C        -2.164462         1.564441         2.187922
 C        -1.662013         1.448123         0.704498
 C        -0.292806         0.910436         0.713602
 C         0.258228         0.659029        -0.687059
 O         0.857698        -0.350850        -1.020739
 C        -2.053451         3.050164         0.544076
 H        -4.272088         4.944485         0.306587
 H        -4.236360         2.594791         1.112177
 H        -1.833368         3.716140         2.754101
 H        -1.242699         1.492593         2.929501
 H        -2.961277         1.003036         2.500665
 H        -2.277178         0.744479        -0.001331
 H         0.437400         1.695871         1.090334
 H        -0.288934         0.008808         1.232252
 H         0.172262         1.395117        -1.460723
 H        -1.512690         3.762008        -0.002390
