19
Iteration:  1571
 O        -3.559963         4.803913         1.062412
 C        -3.238040         3.422580         0.841444
 C        -2.748284         2.803639         2.161506
 C        -2.407296         1.286465         1.866331
 C        -1.382899         1.638891         0.749237
 C         0.007312         1.155168         0.829730
 C         0.537394         0.467166        -0.513139
 O        -0.165206        -0.351342        -1.091278
 C        -1.710697         3.135417         1.038685
 H        -3.025973         5.359554         0.451035
 H        -3.958419         3.036656         0.128019
 H        -2.872885         3.312210         3.120525
 H        -2.007823         0.721362         2.643097
 H        -3.259871         0.738619         1.417454
 H        -1.664356         1.163044        -0.258005
 H         0.791050         1.915051         0.999150
 H         0.178999         0.324114         1.590514
 H         1.462670         0.901971        -0.937410
 H        -1.075163         3.957829         0.814840
