19
Iteration:  2492charge 0 multiplicity 1
 O        -3.932959         4.211131         0.677311
 C        -3.332532         3.022206         0.958419
 C        -2.186772         3.179953         1.894123
 C        -1.873805         1.854356         2.531596
 C        -1.644514         1.313791         1.062482
 C        -0.353990         0.512483         0.934683
 C         0.263004         0.325201        -0.374532
 O         0.257895         1.153249        -1.278323
 C        -1.746700         2.829132         0.543398
 H        -4.355551         4.077744        -0.192483
 H        -4.031060         2.206475         1.032684
 H        -2.049498         4.094499         2.387661
 H        -0.978780         1.673363         3.049092
 H        -2.733724         1.341916         3.154793
 H        -2.505243         0.834488         0.618239
 H         0.486429         1.071757         1.554897
 H        -0.435346        -0.489081         1.398867
 H         0.887359        -0.640491        -0.401915
 H        -1.312503         3.179516        -0.418872
