19
Iteration:  4096
 O        -3.133897         4.939202         1.857403
 C        -2.681490         3.949230         1.056034
 C        -3.252828         2.567515         1.215299
 C        -2.707747         1.599449         0.080986
 C        -1.319600         1.991328         0.478019
 C        -0.446002         0.861086         1.092883
 C         0.271868        -0.080190         0.219484
 O         0.184075        -0.334908        -0.929694
 C        -1.752806         2.855961         1.576233
 H        -2.315082         5.437927         2.141558
 H        -2.399402         4.254599         0.031595
 H        -4.144982         2.563458         1.787005
 H        -3.030543         0.580609         0.200283
 H        -2.852559         1.831824        -0.945766
 H        -0.748913         2.504048        -0.363460
 H         0.258874         1.420035         1.665774
 H        -0.958304         0.203548         1.786772
 H         1.059691        -0.641484         0.851883
 H        -1.334190         2.833029         2.582480
