19
Iteration:  1866charge 0 multiplicity 1
 O        -3.294683         4.568995         0.510053
 C        -3.117878         3.189534         0.822618
 C        -2.357596         3.038076         2.081637
 C        -2.257826         1.543083         2.515576
 C        -1.793211         1.167525         1.076954
 C        -0.414604         0.492668         0.973089
 C         0.100307         0.371864        -0.413471
 O         0.086240         1.259573        -1.252156
 C        -1.668401         2.609443         0.692859
 H        -3.347608         4.589866        -0.455115
 H        -3.880100         2.490370         0.564299
 H        -2.052557         3.836459         2.756343
 H        -1.458141         1.462342         3.129840
 H        -3.187479         1.196094         2.957679
 H        -2.660948         0.728075         0.420695
 H         0.278913         1.161597         1.518324
 H        -0.337781        -0.442907         1.516696
 H         0.618385        -0.648086        -0.542632
 H        -0.853850         3.054866         0.184028
