19
Iteration:  1335charge 0 multiplicity 1
 O        -3.557420         4.798110         1.801734
 C        -3.240642         3.660827         1.013155
 C        -2.710129         2.505964         1.846802
 C        -2.525930         1.185025         1.105600
 C        -1.476883         1.898949         0.120006
 C         0.016209         1.605483         0.299021
 C         0.505136         0.122775         0.129604
 O         0.064610        -0.723840        -0.594218
 C        -1.729211         3.291728         0.883211
 H        -3.228297         5.685619         1.497982
 H        -3.854934         3.569774         0.032981
 H        -3.075307         2.625537         2.919262
 H        -2.196686         0.348508         1.815938
 H        -3.477311         0.863047         0.763120
 H        -1.813707         1.857542        -0.969964
 H         0.527800         2.276814        -0.492267
 H         0.313796         1.953025         1.276304
 H         1.344853        -0.039098         0.927525
 H        -1.051410         3.987770         1.357281
