19
Iteration:   209
 O        -3.539316         4.901187         1.892929
 C        -2.904101         3.979197         0.975189
 C        -3.088793         2.422416         1.197211
 C        -2.522766         1.570400        -0.017686
 C        -1.041211         2.218716         0.390160
 C        -0.349547         0.983861         1.069216
 C         0.442381        -0.033522         0.257306
 O         0.067773        -0.831228        -0.603600
 C        -1.736879         3.233224         1.378485
 H        -2.967266         4.982829         2.712776
 H        -2.944752         4.492842         0.039475
 H        -3.989327         2.209523         1.858261
 H        -2.682133         0.471722        -0.179918
 H        -2.934829         2.079824        -0.986642
 H        -0.256052         2.593548        -0.234559
 H         0.309998         1.391980         1.807350
 H        -1.136158         0.391326         1.553706
 H         1.523172        -0.069801         0.624177
 H        -1.301161         3.419378         2.392726
