19
Iteration:  4907
 O        -3.690837         4.435774         1.913656
 C        -2.384170         4.043168         1.478906
 C        -2.553762         3.228456         0.287593
 C        -1.360610         2.580404        -0.401207
 C        -0.789198         2.094329         0.995004
 C        -0.776640         0.573090         1.365432
 C        -0.517474        -0.565185         0.262476
 O        -0.335021        -0.449791        -0.916750
 C        -2.117679         2.593637         1.547867
 H        -3.616109         4.391782         2.921611
 H        -1.499894         4.693383         1.700809
 H        -3.597654         3.360356        -0.090127
 H        -1.647730         1.816400        -1.115578
 H        -0.643566         3.123197        -1.049449
 H         0.050176         2.690417         1.497809
 H         0.035322         0.353072         2.073594
 H        -1.724940         0.430521         1.915909
 H        -0.592068        -1.619749         0.814593
 H        -2.700917         1.988064         2.149616
