19
Iteration:   730
 O        -3.106817         5.008911         1.664269
 C        -2.970174         3.790277         0.798889
 C        -3.313690         2.576103         1.581444
 C        -2.909789         1.360027         0.754378
 C        -1.530542         1.867891         0.428741
 C        -0.380478         0.941312         0.766352
 C        -0.026485        -0.013960        -0.276554
 O         1.144251        -0.273181        -0.487706
 C        -1.807776         2.996744         1.504844
 H        -3.097070         5.700112         0.984897
 H        -2.976289         3.904547        -0.239427
 H        -4.058292         2.732263         2.411999
 H        -2.738396         0.653747         1.552488
 H        -3.704841         0.977156         0.030797
 H        -1.359560         2.283030        -0.661886
 H         0.548295         1.475769         0.898705
 H        -0.449343         0.499485         1.772444
 H        -0.740871        -0.240163        -1.144721
 H        -1.044290         3.608169         2.099316
