19
Iteration:  2881
 O        -3.828233         4.739974         1.074462
 C        -3.434018         3.413512         1.063013
 C        -2.408273         3.043749         2.202230
 C        -2.224479         1.470957         2.273984
 C        -1.690515         1.512800         0.777598
 C        -0.282059         1.046573         0.586291
 C         0.135083         0.504547        -0.763547
 O         0.965498        -0.337128        -1.092874
 C        -1.939234         2.995902         0.788709
 H        -3.767867         5.092433         0.174182
 H        -4.159805         2.680712         0.758625
 H        -2.106460         3.769654         3.118898
 H        -1.621005         1.096621         3.066612
 H        -3.278697         0.892322         2.328300
 H        -2.267417         0.767765         0.159223
 H         0.432059         1.992056         0.757609
 H         0.152973         0.290514         1.332004
 H        -0.490490         0.897086        -1.630129
 H        -1.278596         3.802591         0.280333
