19
Iteration:  2365
 O        -3.587166         4.380902         0.486650
 C        -3.402012         3.066717         0.992156
 C        -2.233860         3.046165         1.921109
 C        -2.024252         1.608111         2.488454
 C        -1.537366         1.127454         1.065847
 C         0.022197         0.916502         1.070919
 C         0.316116         0.514022        -0.332238
 O        -0.170241         1.086927        -1.268059
 C        -1.969510         2.524110         0.571653
 H        -3.875233         4.332947        -0.462675
 H        -4.258618         2.434714         1.177534
 H        -1.925079         3.953356         2.380172
 H        -1.311492         1.463779         3.402807
 H        -2.993450         1.280329         2.839181
 H        -2.126310         0.317802         0.631208
 H         0.650671         1.900274         1.261834
 H         0.089520         0.120998         1.882227
 H         0.965998        -0.314040        -0.437216
 H        -1.492395         3.006815        -0.342253
