19
Iteration:  2833charge 0 multiplicity 1
 O        -3.618538         4.690844         1.004279
 C        -3.419174         3.264138         0.975778
 C        -2.578151         2.927782         2.231132
 C        -2.107421         1.423794         2.291986
 C        -1.665617         1.559623         0.829565
 C        -0.122109         1.145538         0.638448
 C         0.134573         0.729949        -0.804742
 O         0.656867        -0.351352        -1.006476
 C        -2.002864         2.969050         0.741945
 H        -3.692941         4.823636         0.007973
 H        -4.415089         2.740650         0.663720
 H        -2.346820         3.674677         2.879723
 H        -1.197101         1.329002         3.009001
 H        -2.939215         0.749186         2.552322
 H        -2.312218         0.884137         0.185678
 H         0.390722         2.035020         1.076385
 H         0.138989         0.342653         1.211927
 H         0.075251         1.493630        -1.634720
 H        -1.502259         3.835456         0.424227
