19
Iteration:  4370charge 0 multiplicity 1
 O        -3.447324         4.644263         2.334871
 C        -2.696351         4.201900         1.255928
 C        -3.075419         2.821862         0.683915
 C        -2.284796         2.345271        -0.557500
 C        -0.971442         2.240135         0.370879
 C        -0.588046         0.820220         0.856035
 C         0.060274        -0.078873        -0.101334
 O         0.192439        -1.282831         0.022041
 C        -1.892200         2.795913         1.532301
 H        -2.864590         5.066386         3.032437
 H        -2.268938         4.959140         0.539489
 H        -4.010754         2.397153         1.043267
 H        -2.788129         1.513561        -1.000109
 H        -2.168531         3.156969        -1.360375
 H        -0.119268         2.837825         0.141183
 H         0.170322         0.914845         1.703749
 H        -1.372108         0.333836         1.402437
 H         0.456157         0.445591        -1.031078
 H        -1.907714         2.383746         2.584586
