19
Iteration:  4164
 O        -3.425043         4.784565         2.030165
 C        -2.722002         4.042248         1.024127
 C        -3.157750         2.573954         1.001410
 C        -2.386483         1.705583        -0.074914
 C        -1.027149         2.138647         0.547269
 C        -0.145238         0.907977         1.189088
 C         0.346652        -0.031763         0.056939
 O        -0.374310        -0.682563        -0.730739
 C        -1.781811         2.985264         1.577259
 H        -2.748995         5.386999         2.372080
 H        -2.482430         4.571636         0.072508
 H        -4.104242         2.395874         1.579329
 H        -2.506130         0.682655        -0.033439
 H        -2.538130         1.900961        -1.181380
 H        -0.406707         2.769054        -0.212964
 H         0.793286         1.158281         1.695512
 H        -0.959880         0.440609         1.758245
 H         1.441336        -0.002249        -0.174148
 H        -1.561333         2.774912         2.701726
