19
Iteration:  4257
 O        -3.578099         4.530275         2.041356
 C        -2.693847         3.975728         1.029869
 C        -3.068161         2.586711         0.781572
 C        -2.017145         2.105765        -0.163273
 C        -0.834890         2.360908         0.718917
 C        -0.033996         1.060564         0.959373
 C        -0.090209         0.071721        -0.267117
 O        -0.494808        -1.111814        -0.256443
 C        -1.804207         2.896363         1.729541
 H        -3.146552         5.295457         2.478140
 H        -2.211860         4.762954         0.422809
 H        -3.981184         2.050516         0.965692
 H        -2.246735         0.984798        -0.458892
 H        -2.029608         2.482528        -1.200933
 H        -0.316107         3.211022         0.311951
 H         1.009547         1.421175         1.233600
 H        -0.531643         0.539506         1.851512
 H         0.356493         0.456694        -1.183935
 H        -1.581446         2.955709         2.794121
