19
Iteration:  2213charge 0 multiplicity 1
 O        -3.649530         4.504986         0.685139
 C        -3.268755         3.138606         0.900723
 C        -2.410384         2.935485         2.132655
 C        -2.177263         1.532264         2.453315
 C        -1.558161         1.341875         1.012379
 C        -0.057063         0.949083         0.969105
 C         0.260523         1.002225        -0.517355
 O        -0.004007         0.119371        -1.297213
 C        -1.761594         2.825002         0.665431
 H        -3.958569         4.773712        -0.172105
 H        -3.996437         2.340694         0.667661
 H        -2.567813         3.830066         2.788266
 H        -1.284355         1.603409         3.266537
 H        -2.908966         0.829145         2.819295
 H        -2.139431         0.652578         0.316910
 H         0.649578         1.594863         1.502689
 H         0.142625        -0.017544         1.257985
 H         0.943754         1.897965        -0.831837
 H        -1.089505         3.400644        -0.044301
