19
Iteration:  2717
 O        -3.755435         4.508427         0.729397
 C        -3.343106         3.178197         0.958673
 C        -2.481207         3.123751         2.169743
 C        -2.033837         1.650757         2.504760
 C        -1.600106         1.396966         1.008277
 C        -0.154962         0.852029         0.825034
 C         0.486791         0.735339        -0.498684
 O         0.144976         0.086384        -1.469167
 C        -1.909247         2.871024         0.760074
 H        -3.707667         4.793969        -0.202609
 H        -4.036855         2.368996         0.789263
 H        -2.669719         3.956083         2.698848
 H        -1.124233         1.649542         3.175050
 H        -2.772764         0.855998         2.954843
 H        -2.334727         0.733510         0.583257
 H         0.563726         1.324185         1.520074
 H        -0.122184        -0.282560         1.144844
 H         1.353711         1.413408        -0.635144
 H        -1.291758         3.566124         0.239527
