19
Iteration:  1969charge 0 multiplicity 1
 O        -3.619694         4.734657         0.937857
 C        -3.265168         3.368076         0.946669
 C        -2.431375         3.003933         2.117015
 C        -2.377592         1.487711         2.404211
 C        -1.760173         1.377320         0.857783
 C        -0.202635         0.950302         0.807767
 C         0.062368         0.114020        -0.448341
 O         0.791967         0.374264        -1.410330
 C        -1.856421         2.896569         0.731083
 H        -3.999796         5.177031         0.133249
 H        -4.059922         2.672461         0.602568
 H        -2.435090         3.800258         2.887043
 H        -1.691771         0.969648         3.175586
 H        -3.283926         1.028860         2.487886
 H        -2.480543         0.782796         0.270377
 H         0.461592         1.919615         0.854970
 H         0.157011         0.271289         1.654514
 H        -0.572756        -0.746869        -0.450763
 H        -1.184757         3.613877         0.123736
