19
Iteration:  3567
 O        -3.487432         4.730785         1.844747
 C        -3.098687         3.710252         1.044288
 C        -2.773632         2.476008         1.812470
 C        -2.534036         1.273873         0.863266
 C        -1.359440         2.111329         0.210600
 C         0.145661         1.503240         0.327445
 C         0.501598         0.052021        -0.138222
 O        -0.411366        -0.719878        -0.473331
 C        -1.661875         3.288976         1.143669
 H        -3.024584         5.572091         1.535294
 H        -3.633491         3.644468         0.088277
 H        -3.166154         2.433573         2.831752
 H        -2.113705         0.257716         1.240258
 H        -3.297767         1.115718         0.130009
 H        -1.357865         2.390797        -0.838552
 H         0.975360         2.223582         0.117277
 H         0.353721         1.329750         1.435781
 H         1.549827        -0.220950        -0.207868
 H        -0.892639         3.660388         1.789641
