19
Iteration:  2155
 O        -3.654513         4.659188         0.917108
 C        -3.428115         3.289566         1.106908
 C        -2.297057         3.011740         2.142101
 C        -2.142441         1.465131         2.302994
 C        -1.765488         1.285534         0.826651
 C        -0.201813         1.158533         0.750995
 C         0.430985         0.874069        -0.603870
 O         0.428505        -0.196203        -1.120890
 C        -2.072181         2.793040         0.612481
 H        -3.845574         4.864226        -0.058076
 H        -4.211110         2.630893         0.993635
 H        -1.975285         3.897396         2.666401
 H        -1.460464         0.999042         3.173013
 H        -3.184582         1.019800         2.563738
 H        -2.287431         0.632081         0.150711
 H         0.155628         2.137571         1.047848
 H         0.195642         0.461156         1.438347
 H         0.939588         1.700609        -1.259517
 H        -1.323141         3.300235         0.069826
