19
Iteration:   332
 O        -3.607162         4.907931         1.593942
 C        -2.748311         3.896542         1.023829
 C        -3.234558         2.484716         1.018232
 C        -2.413328         1.495260         0.145554
 C        -1.012793         2.055580         0.703048
 C         0.089651         1.111252         1.158714
 C         0.457184         0.030011         0.026839
 O        -0.359637        -0.529065        -0.679575
 C        -1.850784         2.894811         1.738211
 H        -3.353897         5.793776         1.217186
 H        -2.241223         4.307531         0.175788
 H        -4.101032         2.226666         1.563210
 H        -2.521792         0.516275         0.702938
 H        -2.494664         1.377618        -0.944698
 H        -0.501963         2.656406        -0.027543
 H         0.951030         1.673954         1.420364
 H        -0.159805         0.409173         1.980094
 H         1.514486        -0.234314         0.043775
 H        -1.423033         3.172065         2.680962
