19
Iteration:  2020charge 0 multiplicity 1
 O        -3.736020         4.740743         0.945058
 C        -3.399076         3.322059         1.096849
 C        -2.495875         2.957854         2.215676
 C        -2.178656         1.486067         2.316089
 C        -1.709177         1.593755         0.787583
 C        -0.341139         1.006482         0.631350
 C        -0.027819         0.244853        -0.688024
 O         1.055601        -0.023512        -1.161117
 C        -1.948609         3.071837         0.808763
 H        -3.553679         5.075271         0.047790
 H        -4.105621         2.573347         0.815046
 H        -2.228031         3.736333         2.980673
 H        -1.253964         1.387353         2.781864
 H        -2.902335         0.647103         2.804340
 H        -2.396618         1.022722         0.112792
 H         0.512248         1.575347         0.685753
 H        -0.167508         0.232298         1.359137
 H        -0.934221        -0.072931        -1.274116
 H        -1.188825         3.750568         0.309739
