19
Iteration:  1770
 O        -3.236616         4.532204         0.426120
 C        -3.149287         3.175250         0.836556
 C        -2.220508         3.010855         2.106745
 C        -2.226212         1.591682         2.555844
 C        -1.841361         1.130611         1.052921
 C        -0.550119         0.357139         0.974082
 C         0.326212         0.656311        -0.295388
 O        -0.114826         1.196496        -1.324046
 C        -1.709780         2.631181         0.757539
 H        -3.048646         4.450891        -0.510274
 H        -4.047221         2.620917         0.568653
 H        -2.086048         3.967161         2.634861
 H        -1.368966         1.191461         3.105628
 H        -3.126826         1.132370         2.889759
 H        -2.570281         0.744378         0.442164
 H         0.099957         0.610141         1.815375
 H        -0.522820        -0.725311         0.972384
 H         1.417284         0.289410        -0.227238
 H        -1.003931         3.054306        -0.016099
