19
Iteration:   890charge 0 multiplicity 1
 O        -3.568594         4.836946         1.951778
 C        -3.155507         3.837580         1.019999
 C        -3.027019         2.501005         1.670317
 C        -2.689862         1.472060         0.477197
 C        -1.330604         2.222447         0.175484
 C        -0.059150         1.371861         0.235009
 C        -0.081408        -0.153692        -0.208327
 O         0.901712        -0.876571        -0.055889
 C        -1.732563         3.210800         1.309597
 H        -3.371167         5.674570         1.547795
 H        -3.535693         4.115036        -0.043878
 H        -3.559379         2.425923         2.639714
 H        -2.358363         0.579002         0.937054
 H        -3.344367         1.241326        -0.316989
 H        -1.456675         2.791288        -0.736791
 H         0.960486         1.793467        -0.123182
 H         0.005678         0.988067         1.325388
 H        -1.057022        -0.765418        -0.407102
 H        -1.005733         3.813517         1.936571
