19
Iteration:  3003charge 0 multiplicity 1
 O        -3.435630         4.736473         0.904685
 C        -3.376237         3.381311         1.122175
 C        -2.307025         3.048828         2.113530
 C        -2.235473         1.515850         2.339483
 C        -1.881764         1.236959         0.842891
 C        -0.531293         0.695837         0.715508
 C        -0.077999         0.437987        -0.707655
 O         1.075509         0.432164        -1.105661
 C        -1.983384         2.819061         0.652081
 H        -3.424280         4.979002        -0.059673
 H        -4.315562         2.852350         1.296596
 H        -1.988046         3.807203         2.756966
 H        -1.507535         1.145366         3.066409
 H        -3.120670         0.933146         2.741440
 H        -2.740628         0.780718         0.279127
 H         0.126714         1.447412         1.320306
 H        -0.521015        -0.191174         1.373426
 H        -0.866091         0.053102        -1.382831
 H        -1.456354         3.473945         0.067545
