19
Iteration:  2247
 O        -3.753524         4.353299         0.508935
 C        -3.183760         3.093953         0.807717
 C        -2.431761         3.055147         2.152275
 C        -2.146325         1.594347         2.572201
 C        -1.497266         1.396368         1.106013
 C        -0.095422         0.732776         0.961662
 C         0.298730         0.955866        -0.502652
 O        -0.149399         0.335993        -1.435904
 C        -1.626359         2.889694         0.907169
 H        -3.736625         4.562113        -0.421624
 H        -3.856963         2.253809         0.467535
 H        -2.611014         3.802766         2.907024
 H        -1.179118         1.607002         3.240849
 H        -2.929597         0.927276         2.934582
 H        -2.206604         0.729775         0.490102
 H         0.615177         1.276894         1.557027
 H        -0.108938        -0.315326         1.122242
 H         1.231437         1.573601        -0.602738
 H        -0.930308         3.532988         0.249529
