19
Iteration:   795
 O        -3.396933         4.992440         1.811684
 C        -3.147624         3.848428         1.005381
 C        -3.031950         2.582224         1.700240
 C        -2.940704         1.489349         0.640253
 C        -1.512576         1.945579         0.256870
 C        -0.261996         0.978409         0.618228
 C         0.034194        -0.153352        -0.237979
 O         1.187827        -0.545501        -0.330813
 C        -1.741843         3.220811         1.177557
 H        -2.878274         5.757629         1.496354
 H        -3.454214         3.922836        -0.005853
 H        -3.390581         2.486364         2.725233
 H        -3.025084         0.461615         0.979333
 H        -3.648222         1.654618        -0.286057
 H        -1.451381         2.233585        -0.864400
 H         0.611058         1.534010         0.860772
 H        -0.622689         0.480945         1.495314
 H        -0.760511        -0.682571        -0.803076
 H        -1.096350         3.645499         2.013772
