19
Iteration:  3062
 O        -3.206955         4.657151         0.686531
 C        -3.166975         3.334109         0.984851
 C        -2.238919         3.006500         2.122636
 C        -2.422081         1.557466         2.507726
 C        -1.984236         1.122237         1.037430
 C        -0.441372         0.467355         0.879620
 C        -0.175032         0.525071        -0.640005
 O         0.808259         0.988413        -1.196425
 C        -1.936174         2.560746         0.614969
 H        -3.432913         4.988934        -0.218251
 H        -4.120200         2.814610         1.024189
 H        -1.878441         3.914437         2.727839
 H        -1.520931         1.114863         3.203815
 H        -3.450626         1.318634         2.804674
 H        -2.547372         0.401799         0.363938
 H         0.245944         0.973177         1.482464
 H        -0.614425        -0.489028         1.167378
 H        -1.079554         0.297293        -1.247571
 H        -1.140865         3.076898        -0.060160
