19
Iteration:   683
 O        -3.262121         5.024068         1.427970
 C        -2.870381         3.882835         0.871446
 C        -3.261118         2.617224         1.588173
 C        -3.021533         1.368828         0.781993
 C        -1.484460         1.769184         0.580818
 C        -0.291001         0.849868         1.107659
 C         0.048869         0.034212        -0.224224
 O         1.092154        -0.209319        -0.812077
 C        -1.764867         2.973273         1.464897
 H        -2.446204         5.494317         1.748250
 H        -3.015233         3.792646        -0.196077
 H        -4.147421         2.616598         2.218085
 H        -3.228443         0.472120         1.378586
 H        -3.634606         1.377511        -0.169612
 H        -1.276693         2.126931        -0.521643
 H         0.591083         1.397919         1.367657
 H        -0.544520         0.300685         1.965486
 H        -0.884002        -0.338420        -0.757663
 H        -1.251087         3.373229         2.270654
