19
Iteration:  1916charge 0 multiplicity 1
 O        -3.471090         4.661163         0.706874
 C        -3.277220         3.343512         0.992137
 C        -2.366747         3.039254         2.129138
 C        -2.306600         1.509642         2.302308
 C        -1.650091         1.273356         0.926615
 C        -0.277053         0.692440         1.032203
 C         0.121673         0.124705        -0.423724
 O         0.390467         0.858902        -1.377426
 C        -1.866829         2.790561         0.661512
 H        -3.118101         4.949141        -0.178116
 H        -4.166958         2.609628         0.734152
 H        -2.111876         3.746192         2.948768
 H        -1.543181         1.184828         3.175281
 H        -3.266291         0.919583         2.490797
 H        -2.318296         0.732875         0.291838
 H         0.406897         1.503748         1.531054
 H        -0.247373        -0.200575         1.756063
 H         0.068780        -1.038281        -0.456094
 H        -1.259302         3.613519         0.158698
