19
Iteration:  2013charge 0 multiplicity 1
 O        -3.719563         4.749984         0.965078
 C        -3.402814         3.324390         1.061410
 C        -2.515662         3.026930         2.251979
 C        -2.197887         1.455058         2.311922
 C        -1.683470         1.523561         0.766768
 C        -0.302013         0.954356         0.657072
 C        -0.041831         0.214067        -0.651021
 O         1.034401         0.031280        -1.202511
 C        -1.946639         3.072605         0.788995
 H        -3.473264         4.985693         0.023299
 H        -4.233668         2.647115         0.812098
 H        -2.444038         3.791431         3.023613
 H        -1.252436         1.348473         3.001150
 H        -2.859505         0.792718         2.705848
 H        -2.178805         0.961320        -0.106334
 H         0.586170         1.745379         0.719475
 H        -0.080368         0.339805         1.550496
 H        -1.063867        -0.091044        -1.133935
 H        -1.263064         3.723968         0.142102
