19
Iteration:  2943charge 0 multiplicity 1
 O        -3.787253         4.732998         1.141116
 C        -3.304757         3.434897         1.076765
 C        -2.380742         3.088215         2.187388
 C        -2.221202         1.559631         2.306530
 C        -1.800922         1.456592         0.714086
 C        -0.455415         0.763119         0.550535
 C         0.009133         0.298183        -0.805012
 O         1.181751         0.009672        -0.991354
 C        -1.918722         3.038790         0.666061
 H        -4.187105         4.934868         0.297399
 H        -4.180274         2.750296         0.787702
 H        -1.986467         3.724812         2.986631
 H        -1.270262         1.403636         2.807685
 H        -3.048154         1.017765         2.685587
 H        -2.636037         1.040615         0.124071
 H         0.296557         1.410692         0.965856
 H        -0.544379        -0.221528         1.276106
 H        -0.818649         0.145218        -1.545459
 H        -1.363328         3.835340         0.054215
