19
Iteration:  3789charge 0 multiplicity 1
 O        -3.231008         4.977973         2.040337
 C        -2.973754         3.970398         1.006753
 C        -3.106227         2.548834         1.555271
 C        -2.932314         1.445504         0.525754
 C        -1.457581         2.091387         0.183758
 C        -0.347447         1.091026         0.552829
 C        -0.089986        -0.181274        -0.255716
 O         1.008348        -0.704766        -0.318199
 C        -1.731970         3.150428         1.289385
 H        -2.526617         5.635076         1.851793
 H        -3.149765         4.319093         0.007797
 H        -3.746043         2.442704         2.396110
 H        -2.803060         0.492462         0.968166
 H        -3.685626         1.320927        -0.269339
 H        -1.306742         2.446771        -0.963319
 H         0.713220         1.536277         0.376781
 H        -0.345910         0.691139         1.595570
 H        -1.060360        -0.586913        -0.799437
 H        -1.151899         3.513634         2.222357
