19
Iteration:  2880
 O        -3.823381         4.739279         1.071383
 C        -3.431676         3.415922         1.057435
 C        -2.418248         3.035895         2.210961
 C        -2.225314         1.469901         2.284943
 C        -1.690896         1.502861         0.779853
 C        -0.279978         1.052631         0.590664
 C         0.144356         0.509332        -0.767528
 O         0.961962        -0.343341        -1.096326
 C        -1.945807         3.001118         0.794459
 H        -3.763847         5.138997         0.164564
 H        -4.148461         2.642843         0.762893
 H        -2.076758         3.768200         3.078530
 H        -1.611731         1.133237         3.059247
 H        -3.272731         0.896424         2.308785
 H        -2.283522         0.767995         0.136244
 H         0.444437         1.983103         0.747423
 H         0.133757         0.353132         1.293392
 H        -0.485851         0.905798        -1.631314
 H        -1.292995         3.806218         0.261351
