19
Iteration:  4984
 O        -3.685697         4.555531         1.784599
 C        -2.478393         4.008486         1.332682
 C        -2.578522         2.860432         0.329983
 C        -1.181154         2.535826        -0.218096
 C        -0.741237         2.057301         1.112168
 C        -0.562979         0.566012         1.378746
 C        -0.659623        -0.418805         0.187031
 O        -0.532384        -0.282503        -1.003970
 C        -2.155159         2.549648         1.720937
 H        -3.534081         4.891448         2.663439
 H        -1.707934         4.771493         1.052916
 H        -3.577468         2.780028        -0.146653
 H        -1.015164         1.724991        -0.907392
 H        -0.633794         3.432971        -0.521528
 H         0.290884         2.572991         1.471252
 H         0.384625         0.269874         1.835502
 H        -1.337335         0.239384         2.167870
 H        -0.807996        -1.466264         0.481699
 H        -2.645545         2.089508         2.491977
