19
Iteration:   855charge 0 multiplicity 1
 O        -3.381846         4.838737         1.950238
 C        -3.070052         3.855733         0.975922
 C        -3.006361         2.418028         1.593659
 C        -2.787045         1.294125         0.478105
 C        -1.488778         2.061412         0.216444
 C        -0.083912         1.410232         0.612299
 C        -0.127921        -0.015401        -0.123613
 O         0.876875        -0.710715        -0.190129
 C        -1.753669         3.187668         1.100278
 H        -2.851903         5.570375         1.637659
 H        -3.457156         4.120214        -0.067623
 H        -3.503321         2.440437         2.637485
 H        -2.535810         0.228800         0.787070
 H        -3.371508         1.205160        -0.374835
 H        -1.403773         2.464408        -0.832663
 H         0.703855         2.140555         0.208666
 H         0.154181         1.365824         1.724207
 H        -1.180780        -0.217207        -0.492508
 H        -0.966896         3.659280         1.615148
