19
Iteration:  3077
 O        -3.167673         4.705961         0.608196
 C        -3.196390         3.301590         1.003399
 C        -2.274751         3.018643         2.112368
 C        -2.303581         1.483834         2.492992
 C        -1.842698         1.105610         1.075574
 C        -0.582751         0.423505         0.841356
 C        -0.222435         0.530929        -0.626387
 O         0.727775         1.105342        -1.121688
 C        -1.909613         2.591839         0.618980
 H        -3.063939         4.586677        -0.320588
 H        -4.238083         2.836390         0.871694
 H        -1.772990         3.764179         2.649773
 H        -1.761711         1.271703         3.334714
 H        -3.272218         1.008075         2.741925
 H        -2.705656         0.575417         0.696491
 H         0.261553         0.876811         1.429397
 H        -0.620709        -0.698327         1.139276
 H        -0.856686        -0.069116        -1.336485
 H        -1.243027         3.029514        -0.032498
