19
Iteration:  4955
 O        -3.616113         4.416443         1.942589
 C        -2.472955         4.032005         1.310977
 C        -2.628347         2.977729         0.204835
 C        -1.205191         2.779421        -0.328919
 C        -0.751880         2.104797         1.098440
 C        -0.707734         0.500510         1.421341
 C        -0.684945        -0.502305         0.271249
 O        -0.432136        -0.383993        -0.947191
 C        -2.110853         2.620178         1.576589
 H        -3.402160         4.371523         2.875413
 H        -1.832067         4.785483         0.961394
 H        -3.567677         2.626760        -0.168415
 H        -0.929559         1.986274        -1.094832
 H        -0.719677         3.686083        -0.665762
 H         0.097790         2.465243         1.506601
 H         0.300465         0.223386         1.884808
 H        -1.422118         0.213235         2.119289
 H        -0.737034        -1.591424         0.708660
 H        -2.626708         2.147084         2.495836
