19
Iteration:   804charge 0 multiplicity 1
 O        -3.373065         4.933675         1.839236
 C        -3.108135         3.867304         0.938178
 C        -2.990871         2.492250         1.681551
 C        -2.905528         1.417615         0.665349
 C        -1.471013         2.019104         0.250074
 C        -0.382008         1.037452         0.614919
 C         0.031330        -0.125432        -0.238129
 O         1.150490        -0.572488        -0.308532
 C        -1.762414         3.269585         1.191959
 H        -2.668245         5.561335         1.570683
 H        -3.619397         3.977058        -0.061226
 H        -3.509151         2.477184         2.690298
 H        -2.917657         0.389083         0.917594
 H        -3.571284         1.579179        -0.276132
 H        -1.361550         2.339874        -0.790545
 H         0.536509         1.622163         0.874794
 H        -0.621538         0.653287         1.629768
 H        -0.839482        -0.599910        -0.733906
 H        -1.095795         4.064876         1.674071
