19
Iteration:  1334charge 0 multiplicity 1
 O        -3.560406         4.797243         1.801231
 C        -3.227477         3.665407         1.017327
 C        -2.718971         2.507968         1.850798
 C        -2.533170         1.182591         1.106700
 C        -1.471226         1.882633         0.114260
 C         0.010273         1.614760         0.301020
 C         0.513394         0.126073         0.132293
 O         0.062370        -0.725378        -0.595110
 C        -1.729164         3.290349         0.877830
 H        -3.239189         5.684325         1.490204
 H        -3.807430         3.602574         0.032747
 H        -3.068947         2.599596         2.935212
 H        -2.195445         0.329555         1.810642
 H        -3.468013         0.883408         0.754781
 H        -1.816511         1.866902        -0.934579
 H         0.479173         2.269179        -0.466156
 H         0.311359         1.929140         1.269439
 H         1.348990        -0.009152         0.889468
 H        -1.033117         4.022768         1.334814
