19
Iteration:  2628
 O        -3.546352         4.345045         0.457218
 C        -3.208914         3.071244         0.945749
 C        -2.229258         3.031383         2.012512
 C        -2.119041         1.593182         2.470172
 C        -1.528312         1.186922         1.163827
 C        -0.037598         0.853317         1.080230
 C         0.379067         0.860283        -0.389522
 O        -0.456553         0.791723        -1.279796
 C        -1.866322         2.600257         0.588025
 H        -3.611903         4.257321        -0.496923
 H        -3.997289         2.336519         0.797220
 H        -1.769862         3.977455         2.400247
 H        -1.437529         1.365420         3.283165
 H        -2.954279         0.914867         2.752770
 H        -1.957023         0.419061         0.548104
 H         0.391237         1.752594         1.559773
 H         0.189057        -0.110238         1.632227
 H         1.497121         0.813542        -0.561258
 H        -1.330441         3.336436        -0.038330
