19
Iteration:  4194
 O        -3.542536         4.641244         1.878251
 C        -2.648884         3.956616         1.046083
 C        -2.969474         2.457584         1.045052
 C        -2.271770         1.861286        -0.155909
 C        -0.945825         2.279771         0.632212
 C        -0.199444         0.941054         1.065874
 C         0.188812         0.096517        -0.087757
 O        -0.521614        -0.762470        -0.523371
 C        -1.717966         2.961423         1.750149
 H        -2.855424         5.286483         2.230274
 H        -2.106637         4.471462         0.180875
 H        -3.942937         2.158176         1.402844
 H        -2.403257         0.796043        -0.256584
 H        -2.532034         2.361842        -1.077917
 H        -0.240318         2.903874        -0.027222
 H         0.783982         1.099749         1.512764
 H        -0.994550         0.542257         1.662778
 H         1.216677         0.295476        -0.512695
 H        -1.480319         2.938177         2.885661
