19
Iteration:  3056
 O        -3.219456         4.683352         0.717138
 C        -3.206461         3.313593         1.002580
 C        -2.212713         2.989230         2.094441
 C        -2.431931         1.577378         2.491503
 C        -1.999573         1.087621         1.007484
 C        -0.421288         0.508382         0.847017
 C        -0.166105         0.565124        -0.612371
 O         0.829749         0.922058        -1.212321
 C        -1.886502         2.598722         0.641278
 H        -3.609945         4.918696        -0.177473
 H        -4.203362         2.803199         0.820265
 H        -1.823287         3.761987         2.688922
 H        -1.791270         1.153294         3.123904
 H        -3.410179         1.361453         2.975598
 H        -2.708181         0.463466         0.480806
 H         0.292649         1.097349         1.541794
 H        -0.621339        -0.587846         1.349100
 H        -1.020700         0.273538        -1.299956
 H        -1.265670         3.010645        -0.067575
