19
Iteration:  4506charge 0 multiplicity 1
 O        -3.091509         5.065906         2.050461
 C        -2.291557         4.065769         1.357695
 C        -3.175625         3.131836         0.509738
 C        -2.493688         2.010271        -0.320224
 C        -1.387982         1.863215         0.690849
 C        -0.766016         0.543978         1.010945
 C        -0.201535        -0.167803        -0.184739
 O         0.902119        -0.707876        -0.288733
 C        -2.330769         2.580542         1.651030
 H        -2.801081         5.192357         2.937628
 H        -1.270633         4.485644         0.957304
 H        -4.249188         3.313085         0.776231
 H        -3.125421         0.997978        -0.190156
 H        -2.146922         2.209131        -1.421378
 H        -0.572126         2.507378         0.522952
 H         0.020564         0.641316         1.774567
 H        -1.683748         0.037559         1.501218
 H        -0.908673        -0.058700        -1.036365
 H        -2.759621         2.193531         2.636937
