19
Iteration:  1400charge 0 multiplicity 1
 O        -3.727252         4.657649         1.662421
 C        -3.117159         3.517694         0.958925
 C        -2.545047         2.539075         1.940404
 C        -2.351607         1.248327         1.196562
 C        -1.292640         1.987573         0.124517
 C         0.120903         1.624013         0.354013
 C         0.091273         0.134290         0.282129
 O        -0.078482        -0.510537        -0.742879
 C        -1.660631         3.250364         0.949363
 H        -3.857745         5.361066         1.018631
 H        -3.728189         3.077560         0.122760
 H        -2.529203         2.768611         3.040292
 H        -1.833240         0.426418         1.799547
 H        -3.210165         0.964282         0.669581
 H        -1.533951         1.613141        -0.851464
 H         0.634506         1.781000        -0.570507
 H         0.540600         2.081845         1.190410
 H         0.029090        -0.458892         1.285049
 H        -0.900140         3.992811         1.127065
