19
Iteration:  4058charge 0 multiplicity 1
 O        -3.147361         4.985271         1.771466
 C        -2.787882         3.953411         0.948214
 C        -3.283575         2.718098         1.324448
 C        -2.778684         1.603195         0.264932
 C        -1.289407         1.817366         0.582330
 C        -0.438340         0.620228         1.113239
 C         0.195768        -0.331727         0.125472
 O         0.435672        -0.009774        -0.977441
 C        -1.733370         2.984867         1.530947
 H        -2.384092         5.571258         1.762751
 H        -2.678370         4.321997        -0.103718
 H        -4.124703         2.647586         2.071640
 H        -3.139797         0.592846         0.640396
 H        -3.124092         1.768645        -0.800260
 H        -0.685679         2.201119        -0.296092
 H         0.436440         0.859807         1.777858
 H        -1.047715        -0.012318         1.809531
 H         0.253150        -1.400380         0.545488
 H        -1.046946         3.060288         2.419146
