19
Iteration:  3063charge 0 multiplicity 1
 O        -3.204238         4.657078         0.684199
 C        -3.160074         3.334501         0.981309
 C        -2.242748         3.011952         2.124440
 C        -2.415992         1.549607         2.510758
 C        -1.977418         1.126790         1.040068
 C        -0.451684         0.464975         0.884158
 C        -0.176485         0.520511        -0.643885
 O         0.805417         0.998257        -1.193156
 C        -1.942385         2.558522         0.611022
 H        -3.412818         4.975438        -0.247398
 H        -4.126561         2.805926         1.052010
 H        -1.882672         3.920261         2.728296
 H        -1.527548         1.133772         3.206149
 H        -3.445591         1.299549         2.779427
 H        -2.529668         0.408905         0.365711
 H         0.250360         0.955961         1.467613
 H        -0.601082        -0.518753         1.145831
 H        -1.090788         0.287345        -1.231749
 H        -1.147223         3.067056        -0.040115
