19
Iteration:   657charge 0 multiplicity 1
 O        -3.354934         5.043548         1.341163
 C        -2.865378         3.890512         0.860569
 C        -3.172957         2.645608         1.640377
 C        -2.888515         1.370280         0.757963
 C        -1.455388         1.848134         0.604111
 C        -0.370848         0.731702         0.855208
 C        -0.044113        -0.177636        -0.224793
 O         1.053276        -0.042071        -0.727104
 C        -1.750373         3.017302         1.668190
 H        -2.599507         5.468034         1.840943
 H        -2.832050         3.792378        -0.311600
 H        -4.054396         2.650186         2.302023
 H        -2.934430         0.321815         1.224847
 H        -3.451467         1.353337        -0.129755
 H        -1.242955         2.306936        -0.348193
 H         0.626107         1.188359         1.216519
 H        -0.678000         0.031470         1.703125
 H        -0.606277        -1.158799        -0.407093
 H        -1.128675         3.715853         2.350906
