19
Iteration:  1252
 O        -3.597703         4.824690         1.595678
 C        -3.228027         3.585962         0.971605
 C        -2.759557         2.488725         1.867759
 C        -2.475926         1.178254         1.105886
 C        -1.342795         1.930928         0.262024
 C         0.174728         1.505575         0.655382
 C         0.491195         0.353319        -0.289643
 O        -0.148679        -0.696601        -0.483594
 C        -1.753840         3.238139         1.014911
 H        -3.098423         5.553215         1.215411
 H        -3.727912         3.291146         0.091113
 H        -2.723177         2.404077         2.976152
 H        -2.243008         0.354603         1.737968
 H        -3.421836         0.828357         0.476044
 H        -1.777295         1.900971        -0.790573
 H         0.916248         2.209629         0.789874
 H         0.144732         1.098847         1.713591
 H         1.413824         0.420986        -1.130704
 H        -1.153615         4.091476         1.293773
