19
Iteration:   427
 O        -3.432496         4.799698         1.722741
 C        -2.885349         3.819200         0.857319
 C        -3.159367         2.485036         1.233374
 C        -2.593877         1.372578         0.222856
 C        -1.109179         1.891915         0.501151
 C        -0.067950         1.007786         1.219083
 C         0.317406        -0.157403         0.337602
 O        -0.079964        -0.067807        -0.801358
 C        -1.664129         3.120964         1.410598
 H        -2.897221         5.590712         1.509203
 H        -2.799465         4.198070        -0.190957
 H        -3.931500         2.324806         1.941070
 H        -2.818646         0.310983         0.561348
 H        -2.990149         1.577676        -0.808751
 H        -0.788845         2.268293        -0.527718
 H         0.847794         1.710186         1.404826
 H        -0.478122         0.830076         2.182636
 H         1.041783        -0.910057         0.690905
 H        -1.373075         3.495946         2.324728
