19
Iteration:  1508charge 0 multiplicity 1
 O        -3.570641         4.727806         1.234895
 C        -3.112228         3.486994         0.795814
 C        -2.669368         2.632230         2.069502
 C        -2.483061         1.190474         1.713666
 C        -1.401761         1.788246         0.542840
 C         0.021446         1.412940         0.603579
 C         0.504032         0.289088        -0.268391
 O        -0.250295        -0.379717        -0.937801
 C        -1.693097         3.222299         1.056922
 H        -3.568900         5.393884         0.536737
 H        -3.532362         2.958483        -0.010127
 H        -2.916442         3.005721         3.054166
 H        -1.792431         0.570451         2.363135
 H        -3.401079         0.662894         1.705762
 H        -1.780201         1.473756        -0.342053
 H         0.633658         2.280052         0.398956
 H         0.436586         1.275285         1.644356
 H         1.634920         0.207866        -0.303268
 H        -0.917965         3.914639         1.227224
