19
Iteration:   758
 O        -3.324288         5.090166         1.718332
 C        -2.942896         3.905706         0.940528
 C        -3.158299         2.556961         1.663718
 C        -3.048363         1.375131         0.674304
 C        -1.641916         1.857216         0.339052
 C        -0.344175         1.005799         0.669424
 C         0.116221        -0.121317        -0.248321
 O         1.271040        -0.474790        -0.482446
 C        -1.718461         3.141532         1.428204
 H        -3.435139         5.746338         1.041687
 H        -3.002588         3.994428        -0.220429
 H        -3.754282         2.680546         2.613111
 H        -3.192585         0.400237         1.171047
 H        -3.852955         1.490490        -0.047580
 H        -1.670219         2.137869        -0.673265
 H         0.602355         1.557642         1.000392
 H        -0.565858         0.363209         1.590820
 H        -0.720885        -0.577942        -0.801177
 H        -0.984753         3.297117         2.174919
