19
Iteration:   719charge 0 multiplicity 1
 O        -3.059027         4.990732         1.577110
 C        -2.952201         3.860212         0.861243
 C        -3.298822         2.534626         1.507506
 C        -2.924697         1.246460         0.812210
 C        -1.526171         1.846609         0.479900
 C        -0.350668         0.955107         0.918622
 C        -0.048310         0.044427        -0.327022
 O         1.113544        -0.248660        -0.546393
 C        -1.832379         3.075631         1.474248
 H        -2.797573         5.799807         1.070112
 H        -3.136618         4.045817        -0.150291
 H        -4.086896         2.450373         2.317913
 H        -2.817223         0.343789         1.392879
 H        -3.475494         0.901401        -0.134604
 H        -1.438345         2.107200        -0.659416
 H         0.480431         1.627635         1.040675
 H        -0.633773         0.426088         1.847416
 H        -0.934324        -0.123389        -1.030707
 H        -1.119782         3.382325         2.316487
