19
Iteration:  1745charge 0 multiplicity 1
 O        -3.291885         4.678972         0.516807
 C        -3.215588         3.328942         0.916889
 C        -2.353552         2.987525         2.141946
 C        -2.272217         1.550183         2.449631
 C        -1.707591         1.164273         1.047356
 C        -0.385668         0.448615         0.962397
 C         0.403239         0.502529        -0.323512
 O        -0.073569         0.982447        -1.337418
 C        -1.807549         2.634991         0.639631
 H        -3.477082         4.606263        -0.418776
 H        -4.197892         2.893623         0.856890
 H        -1.900179         3.714338         2.864611
 H        -1.610964         1.246621         3.185743
 H        -3.246777         1.002846         2.618162
 H        -2.384168         0.647730         0.428922
 H         0.364348         0.693450         1.812336
 H        -0.416926        -0.670870         1.024047
 H         1.484236         0.306448        -0.158952
 H        -1.032551         3.200291         0.069582
