19
Iteration:  4425charge 0 multiplicity 1
 O        -3.373131         4.891466         2.108878
 C        -2.587961         4.199250         1.237069
 C        -3.107522         2.783274         0.792673
 C        -2.245667         2.173305        -0.341829
 C        -1.118899         2.072169         0.588417
 C        -0.934886         0.551477         0.884378
 C         0.041206         0.008047        -0.224072
 O         0.501589        -1.087610        -0.149930
 C        -1.892527         2.838940         1.653340
 H        -2.954067         5.537723         2.693127
 H        -2.066728         4.905308         0.518038
 H        -4.117768         2.526879         1.091264
 H        -2.637477         1.299196        -0.772341
 H        -2.080769         2.902974        -1.227962
 H        -0.162976         2.475295         0.242715
 H        -0.484640         0.339959         1.918777
 H        -1.934289         0.119099         0.849718
 H         0.061465         0.592898        -1.171575
 H        -1.835357         2.482936         2.679936
