19
Iteration:  3002
 O        -3.441427         4.734900         0.913285
 C        -3.381143         3.384785         1.118441
 C        -2.313256         3.058392         2.117042
 C        -2.229460         1.513869         2.339780
 C        -1.885171         1.239094         0.836905
 C        -0.531151         0.701489         0.709276
 C        -0.070026         0.433444        -0.712853
 O         1.086000         0.422105        -1.109107
 C        -1.986569         2.820517         0.653540
 H        -3.409876         4.953917        -0.070190
 H        -4.335328         2.852374         1.319517
 H        -1.976961         3.841628         2.796540
 H        -1.520201         1.158740         3.009848
 H        -3.129127         0.944760         2.728314
 H        -2.746204         0.784165         0.330965
 H         0.144532         1.437889         1.326969
 H        -0.576148        -0.220136         1.429092
 H        -0.879580         0.041283        -1.379484
 H        -1.416167         3.483309         0.075142
