19
Iteration:  2666charge 0 multiplicity 1
 O        -3.650849         4.388777         0.519886
 C        -3.244091         3.145086         0.956178
 C        -2.303941         3.043887         2.112981
 C        -2.100846         1.583617         2.515734
 C        -1.560593         1.277065         1.031400
 C        -0.165915         0.839270         1.009272
 C         0.402223         0.893447        -0.427886
 O        -0.213497         0.454806        -1.377384
 C        -1.786201         2.727726         0.685827
 H        -3.904005         4.332628        -0.447115
 H        -3.984569         2.259923         0.839609
 H        -1.870841         3.931587         2.609236
 H        -1.208327         1.503542         3.271947
 H        -3.002782         1.240238         2.898761
 H        -2.249699         0.503081         0.558075
 H         0.453694         1.516636         1.559822
 H         0.070312        -0.099267         1.480085
 H         1.411795         1.412620        -0.590563
 H        -1.120543         3.379997         0.102327
