19
Iteration:  3302charge 0 multiplicity 1
 O        -3.169473         4.863896         1.040027
 C        -3.084656         3.413380         0.911927
 C        -2.432379         2.794467         2.145594
 C        -2.541286         1.266314         1.973464
 C        -1.706444         1.360570         0.715701
 C        -0.298006         0.834667         0.986418
 C         0.465160         0.596586        -0.370673
 O        -0.203233         0.254868        -1.353474
 C        -1.712345         2.895365         0.890454
 H        -3.380188         5.327479         0.172778
 H        -3.924786         2.925579         0.338248
 H        -2.348655         3.364361         3.079757
 H        -2.120810         0.701450         2.747657
 H        -3.600507         1.100060         1.856306
 H        -2.164607         0.901358        -0.118628
 H         0.383104         1.555709         1.512705
 H        -0.221282        -0.140364         1.469204
 H         1.591650         0.634073        -0.397042
 H        -0.861963         3.398949         0.499844
