19
Iteration:  2406charge 0 multiplicity 1
 O        -3.659596         4.337774         0.515114
 C        -3.391530         3.070676         1.041064
 C        -2.108935         3.106998         1.961415
 C        -1.990657         1.720806         2.642043
 C        -1.763035         1.127456         1.149857
 C        -0.307683         0.889184         0.981402
 C         0.341653         0.526180        -0.401703
 O         0.236906         1.051102        -1.466431
 C        -2.021538         2.491896         0.623821
 H        -3.876251         4.193280        -0.394719
 H        -4.347314         2.454619         1.344996
 H        -1.807232         4.104760         2.333414
 H        -1.231505         1.563536         3.281713
 H        -2.990872         1.432304         2.988320
 H        -2.314385         0.206942         0.697089
 H         0.168746         1.759337         1.305806
 H         0.148603         0.071460         1.535976
 H         1.080350        -0.423429        -0.349979
 H        -1.497816         2.836947        -0.334311
