19
Iteration:  3900
 O        -2.990595         5.029016         1.560584
 C        -2.650130         3.889813         0.874414
 C        -3.287008         2.697028         1.513766
 C        -3.168942         1.465886         0.721307
 C        -1.571246         1.723136         0.553049
 C        -0.438064         0.704576         0.945509
 C        -0.033409        -0.051609        -0.254567
 O         1.018081         0.014671        -0.759007
 C        -1.740982         2.851351         1.572276
 H        -2.166369         5.569958         1.678529
 H        -2.553996         3.962457        -0.193247
 H        -4.089278         2.577539         2.344336
 H        -3.596444         0.633718         1.112176
 H        -3.676584         1.503937        -0.260890
 H        -1.351893         2.058671        -0.470172
 H         0.397450         1.125543         1.617952
 H        -0.932857        -0.117090         1.545396
 H        -0.810191        -0.806156        -0.608856
 H        -1.268310         3.035767         2.510621
