19
Iteration:  3318charge 0 multiplicity 1
 O        -3.273689         4.869309         1.115404
 C        -3.092720         3.502283         0.956244
 C        -2.556531         2.833810         2.127231
 C        -2.654494         1.277026         1.986035
 C        -1.601825         1.379839         0.739616
 C        -0.131601         0.823571         0.903021
 C         0.475757         0.517908        -0.384414
 O        -0.217002         0.129928        -1.366129
 C        -1.626058         2.947218         0.806459
 H        -3.112348         5.284636         0.218831
 H        -3.931872         3.079239         0.440093
 H        -2.407260         3.435818         3.019348
 H        -2.188188         0.654015         2.853019
 H        -3.590950         0.807169         1.668286
 H        -1.947745         1.058199        -0.299652
 H         0.427566         1.497395         1.552703
 H        -0.218396        -0.104233         1.597757
 H         1.540660         0.797461        -0.449215
 H        -0.806238         3.722668         0.978373
