19
Iteration:  4268
 O        -3.591989         4.521854         2.071413
 C        -2.723044         4.010735         1.145771
 C        -3.070564         2.667593         0.720835
 C        -2.087375         2.106927        -0.251450
 C        -0.817831         2.395115         0.608799
 C        -0.033488         1.042494         0.897944
 C        -0.073800         0.023377        -0.187747
 O        -0.443880        -1.111932        -0.202356
 C        -1.791545         2.856101         1.751578
 H        -3.101972         5.171474         2.548339
 H        -2.292020         4.638190         0.333436
 H        -4.129992         2.428580         0.755493
 H        -2.178053         0.933098        -0.234396
 H        -2.064368         2.650431        -1.213737
 H        -0.072820         3.123721         0.268658
 H         1.096274         1.090956         1.083326
 H        -0.467244         0.489169         1.808717
 H         0.359720         0.439210        -1.104439
 H        -1.758856         2.799851         2.862175
