19
Iteration:   277
 O        -3.326505         4.822235         1.832540
 C        -2.837260         3.914419         0.924439
 C        -3.175438         2.469504         1.033787
 C        -2.507630         1.561532         0.035831
 C        -1.020834         2.019874         0.441660
 C        -0.126111         1.079094         1.194398
 C         0.480579         0.114422         0.203283
 O        -0.272231        -0.497015        -0.511460
 C        -1.801938         2.937871         1.481237
 H        -4.293446         4.774052         1.832086
 H        -2.637875         4.412415        -0.037865
 H        -4.077827         2.215587         1.565913
 H        -2.700748         0.456338         0.237536
 H        -2.729116         1.603870        -1.035182
 H        -0.546518         2.523351        -0.390777
 H         0.674318         1.638341         1.561064
 H        -0.628874         0.613239         2.024083
 H         1.624965         0.156348         0.056350
 H        -1.573981         2.825435         2.498506
