19
Iteration:  2890
 O        -3.855059         4.744733         1.095795
 C        -3.390404         3.371266         1.143315
 C        -2.365208         3.056842         2.162960
 C        -2.243985         1.492675         2.205670
 C        -1.692684         1.517445         0.784973
 C        -0.223461         0.975954         0.605971
 C         0.050912         0.459157        -0.779418
 O         0.988240        -0.273082        -1.037215
 C        -1.908343         3.031022         0.712472
 H        -3.865178         4.903892         0.147389
 H        -4.262808         2.761749         0.823222
 H        -2.410419         3.722915         3.077248
 H        -1.586269         1.031942         2.882331
 H        -3.242036         0.968714         2.414876
 H        -2.427227         0.971462         0.076661
 H         0.433359         1.883152         0.809608
 H        -0.061352         0.266018         1.291572
 H        -0.609059         0.912997        -1.580210
 H        -1.127433         3.763877         0.281095
