19
Iteration:  4494
 O        -3.074539         5.058841         2.036798
 C        -2.338809         4.039237         1.325307
 C        -3.203472         3.054441         0.544126
 C        -2.463010         2.061859        -0.359940
 C        -1.314020         1.969755         0.722839
 C        -0.757741         0.541438         1.030951
 C        -0.214966        -0.124871        -0.259488
 O         0.842293        -0.761734        -0.234902
 C        -2.366858         2.590103         1.742117
 H        -2.571162         5.106466         2.910115
 H        -1.324281         4.475241         0.868269
 H        -4.339983         3.201991         0.419427
 H        -3.145946         1.095048        -0.363057
 H        -2.317907         2.257491        -1.514607
 H        -0.537181         2.643681         0.472185
 H         0.175333         0.666875         1.654855
 H        -1.294030        -0.293985         1.581453
 H        -0.657528         0.042375        -1.243957
 H        -2.664439         2.050017         2.671823
