19
Iteration:  2059
 O        -3.879585         4.659746         1.094446
 C        -3.354488         3.372370         1.094065
 C        -2.393145         3.071719         2.177363
 C        -2.236925         1.595567         2.317130
 C        -1.763772         1.588750         0.830600
 C        -0.341581         0.889041         0.478800
 C         0.039826         0.361171        -0.922850
 O         1.097780        -0.221927        -0.952475
 C        -1.864404         3.055148         0.760942
 H        -4.041216         4.852661         0.139246
 H        -4.183190         2.656764         0.763167
 H        -2.190632         3.735602         2.996055
 H        -1.314834         1.384234         2.982493
 H        -2.989874         0.997218         2.657164
 H        -2.570519         1.222981         0.121031
 H         0.461249         1.730771         0.695555
 H        -0.113672         0.123583         1.289389
 H        -0.508806         0.843757        -1.858852
 H        -1.372458         3.825777         0.305206
