19
Iteration:  2331
 O        -3.641813         4.361959         0.494513
 C        -3.248302         2.981627         0.818411
 C        -2.312425         3.017864         1.983453
 C        -2.086478         1.648121         2.628732
 C        -1.534829         1.226378         1.107703
 C        -0.047642         0.851389         1.054762
 C         0.318307         0.596781        -0.374937
 O        -0.309077         0.961655        -1.347675
 C        -1.726945         2.655499         0.654118
 H        -3.763138         4.244454        -0.501221
 H        -4.017114         2.226972         0.678222
 H        -2.429174         3.972056         2.581927
 H        -1.206411         1.615144         3.284953
 H        -2.947976         1.067366         2.971116
 H        -2.171802         0.415293         0.818048
 H         0.622670         1.702952         1.499992
 H         0.220287        -0.095187         1.681099
 H         1.375908         0.260958        -0.554791
 H        -1.156926         3.295850        -0.111763
