19
Iteration:  1871
 O        -3.332176         4.572122         0.549669
 C        -3.064036         3.193280         0.803089
 C        -2.359448         3.014960         2.079778
 C        -2.269186         1.546014         2.496467
 C        -1.820429         1.147742         1.068986
 C        -0.442885         0.515795         1.018648
 C         0.141154         0.334454        -0.445612
 O         0.115121         1.234000        -1.285575
 C        -1.687015         2.675509         0.692750
 H        -3.286752         4.608336        -0.439599
 H        -4.038289         2.607887         0.612080
 H        -2.034122         3.907587         2.623416
 H        -1.473928         1.442175         3.399939
 H        -3.196986         1.100158         2.921489
 H        -2.595075         0.635000         0.589447
 H         0.371869         1.261729         1.391164
 H        -0.414524        -0.331242         1.778654
 H         0.591909        -0.662629        -0.681286
 H        -0.756280         3.030537         0.175409
