19
Iteration:  3356
 O        -3.363874         4.882189         1.159621
 C        -3.068209         3.523567         0.924003
 C        -2.743351         2.785093         2.133687
 C        -2.526562         1.240988         1.935036
 C        -1.510135         1.622907         0.694509
 C        -0.218893         0.889738         0.779943
 C         0.479325         0.364642        -0.439701
 O        -0.122120        -0.122789        -1.390368
 C        -1.653551         3.148137         1.077035
 H        -2.710690         5.400449         0.614770
 H        -3.676650         2.946192         0.129204
 H        -2.746410         3.386612         3.091487
 H        -2.023429         0.919879         2.816651
 H        -3.574361         0.648262         1.940844
 H        -1.974376         1.379288        -0.274084
 H         0.633117         1.495157         1.124183
 H        -0.319631         0.068414         1.391141
 H         1.627516         0.439684        -0.565336
 H        -0.902074         3.859068         1.347241
