19
Iteration:  2260charge 0 multiplicity 1
 O        -3.740491         4.310077         0.440478
 C        -3.156228         3.112109         0.923123
 C        -2.533235         3.055437         2.210303
 C        -2.112622         1.629323         2.563402
 C        -1.434699         1.384211         1.190975
 C        -0.100786         0.694832         0.943195
 C         0.392272         0.868782        -0.486272
 O        -0.216263         0.433857        -1.476668
 C        -1.664674         2.919751         0.800471
 H        -3.429374         4.261561        -0.519299
 H        -3.718946         2.107862         0.590500
 H        -2.624906         3.901661         2.801289
 H        -1.401636         1.652828         3.409063
 H        -2.956398         1.012877         2.913059
 H        -2.127546         0.939797         0.337979
 H         0.693374         0.893292         1.641287
 H        -0.372175        -0.418895         1.125850
 H         1.193481         1.688887        -0.680979
 H        -0.974200         3.683683         0.381583
