19
Iteration:  2917
 O        -3.781181         4.653960         1.141693
 C        -3.342729         3.333257         1.080390
 C        -2.322654         3.079784         2.156994
 C        -2.190806         1.528410         2.181482
 C        -1.733641         1.585068         0.696898
 C        -0.389274         0.936581         0.595723
 C         0.004924         0.394293        -0.719441
 O         1.058187        -0.137429        -0.989471
 C        -1.912997         3.068266         0.688973
 H        -4.291854         4.823378         0.361846
 H        -4.134098         2.722288         0.717154
 H        -2.039363         3.731886         2.987164
 H        -1.312442         1.053583         2.807773
 H        -3.177095         1.016997         2.375427
 H        -2.548195         1.123798         0.063047
 H         0.327717         1.574689         1.159878
 H        -0.699564        -0.080612         1.306546
 H        -0.885709         0.464018        -1.433225
 H        -1.322343         3.790493         0.237889
