19
Iteration:   533
 O        -3.377501         4.916401         1.680898
 C        -2.918359         3.886230         0.839478
 C        -3.157274         2.600113         1.481804
 C        -2.942819         1.482220         0.485265
 C        -1.340879         1.891887         0.417535
 C        -0.333679         0.925096         1.016944
 C         0.180723        -0.263407         0.213990
 O         0.765141        -0.173044        -0.853714
 C        -1.691812         3.042437         1.408478
 H        -2.530686         5.361119         1.928350
 H        -3.021200         4.033278        -0.268682
 H        -3.810367         2.646560         2.319926
 H        -3.230406         0.514929         0.700731
 H        -3.549790         1.689219        -0.404555
 H        -1.065915         2.229174        -0.574120
 H         0.561812         1.571693         0.918533
 H        -0.524704         0.712013         2.159572
 H         0.104160        -1.232283         0.723549
 H        -0.995493         3.397035         2.107935
