19
Iteration:  1432charge 0 multiplicity 1
 O        -3.757640         4.620477         1.546877
 C        -3.146918         3.489144         0.918899
 C        -2.540780         2.597441         1.977127
 C        -2.294935         1.280959         1.314205
 C        -1.287181         2.047933         0.264221
 C         0.086796         1.535791         0.462922
 C         0.147341         0.012043         0.168942
 O        -0.119428        -0.506693        -0.878236
 C        -1.670010         3.378398         0.993516
 H        -3.803350         5.312353         0.834499
 H        -3.706537         3.011934         0.108947
 H        -2.592312         2.862122         3.062669
 H        -1.745635         0.416947         1.912073
 H        -3.108844         0.734632         0.877135
 H        -1.597198         1.938077        -0.783656
 H         0.763507         1.919537        -0.294755
 H         0.606596         1.785811         1.381788
 H         0.395301        -0.583538         1.126299
 H        -1.054168         4.257936         1.086671
