19
Iteration:  1611charge 0 multiplicity 1
 O        -3.619480         4.777095         1.062034
 C        -3.125866         3.475544         0.790231
 C        -2.581514         2.864731         2.192853
 C        -2.374253         1.395102         2.020367
 C        -1.598710         1.557997         0.739630
 C        -0.123485         1.016120         0.777058
 C         0.503444         0.442310        -0.370137
 O        -0.018025        -0.201584        -1.257713
 C        -1.687882         3.037759         0.989692
 H        -3.716829         5.198451         0.202490
 H        -3.519486         2.776105         0.003510
 H        -2.959370         3.422494         3.071774
 H        -1.696628         0.983023         2.811347
 H        -3.314526         0.764176         1.764033
 H        -2.193374         1.483803        -0.194517
 H         0.365542         1.951884         1.142920
 H        -0.055744         0.227748         1.489466
 H         1.682684         0.357502        -0.426112
 H        -0.870345         3.740860         0.775307
