19
Iteration:   870
 O        -3.388548         4.792859         1.934108
 C        -3.140663         3.789429         0.993357
 C        -3.110468         2.465565         1.578628
 C        -2.737161         1.436170         0.536414
 C        -1.388601         2.172187         0.139389
 C        -0.108582         1.369056         0.441434
 C        -0.050242        -0.008875        -0.047340
 O         0.878691        -0.828456        -0.185739
 C        -1.741982         3.231604         1.221442
 H        -3.121820         5.680403         1.646724
 H        -3.601038         3.877326        -0.028843
 H        -3.470107         2.188229         2.534397
 H        -2.653300         0.515043         1.031535
 H        -3.569206         1.340390        -0.225484
 H        -1.263623         2.420649        -0.895702
 H         0.797274         1.806524        -0.088716
 H         0.139365         1.453258         1.527107
 H        -0.949855        -0.375618        -0.603013
 H        -1.120333         3.769166         2.009056
