19
Iteration:  3885charge 0 multiplicity 1
 O        -2.979441         5.078616         1.616643
 C        -2.746340         3.868425         0.914434
 C        -3.294643         2.623672         1.612962
 C        -3.065244         1.441507         0.582332
 C        -1.554722         1.762540         0.566998
 C        -0.585576         0.671382         0.994649
 C        -0.039435        -0.069200        -0.289394
 O         1.082948        -0.059794        -0.742552
 C        -1.758666         2.934469         1.509169
 H        -2.158655         5.644848         1.546413
 H        -2.832649         3.901456        -0.241512
 H        -3.916031         2.922678         2.399584
 H        -3.097197         0.389174         1.105157
 H        -3.679550         1.505457        -0.381968
 H        -1.241645         2.108292        -0.403433
 H         0.300997         1.243107         1.289058
 H        -0.936551         0.010727         1.817708
 H        -0.939188        -0.557630        -0.760742
 H        -0.909569         3.335587         2.166896
