19
Iteration:  2245
 O        -3.748272         4.358333         0.516907
 C        -3.186514         3.087122         0.794815
 C        -2.423319         3.034782         2.154649
 C        -2.137089         1.597767         2.562050
 C        -1.515844         1.379434         1.094246
 C        -0.101093         0.746829         0.970378
 C         0.303979         0.959726        -0.500658
 O        -0.145078         0.322041        -1.433928
 C        -1.636036         2.891957         0.913605
 H        -3.816435         4.660254        -0.414344
 H        -3.797986         2.284099         0.498715
 H        -2.565057         3.920895         2.883739
 H        -1.152964         1.640415         3.282307
 H        -2.940853         0.897519         2.854078
 H        -2.200811         0.762173         0.517863
 H         0.625365         1.333829         1.549780
 H        -0.086339        -0.272423         1.098545
 H         1.168254         1.595571        -0.590955
 H        -0.933803         3.514852         0.289197
