19
Iteration:  2536charge 0 multiplicity 1
 O        -3.858807         4.284844         0.399655
 C        -3.315821         3.015186         1.010716
 C        -2.208929         3.182144         2.037663
 C        -1.970295         1.768824         2.643666
 C        -1.543713         1.264434         1.134278
 C        -0.228628         0.543230         1.010098
 C         0.258405         0.379846        -0.499908
 O         0.067680         1.185445        -1.388372
 C        -1.794430         2.704736         0.704215
 H        -3.837873         4.149619        -0.573907
 H        -3.957950         2.222351         0.951224
 H        -2.079150         4.066556         2.554066
 H        -1.163144         1.903028         3.307087
 H        -2.790873         1.272340         3.308669
 H        -2.256663         0.598133         0.707637
 H         0.659741         1.253210         1.272776
 H        -0.248040        -0.416272         1.522190
 H         0.935458        -0.567564        -0.538113
 H        -1.303819         3.317348        -0.020020
