19
Iteration:  4784
 O        -3.228304         4.880130         1.853130
 C        -2.207809         4.039858         1.392329
 C        -2.871505         2.956722         0.410566
 C        -1.878699         2.151959        -0.352195
 C        -1.188466         1.696952         0.982164
 C        -1.235977         0.118801         1.138971
 C        -0.020961        -0.276075         0.346968
 O         0.102746         0.048037        -0.863837
 C        -2.204781         2.666802         1.723460
 H        -2.876108         5.302717         2.696952
 H        -1.218443         4.581591         1.063693
 H        -3.904624         3.221361         0.250600
 H        -2.454799         1.302530        -0.793050
 H        -1.221003         2.696057        -1.106599
 H        -0.152496         2.006625         1.012657
 H        -1.150135        -0.224016         2.154127
 H        -2.166849        -0.313178         0.689780
 H         0.915593        -0.556509         1.021600
 H        -2.788376         2.469095         2.684498
