19
Iteration:  1776charge 0 multiplicity 1
 O        -3.233597         4.499441         0.409634
 C        -3.124220         3.140972         0.816013
 C        -2.218296         3.002246         2.092036
 C        -2.191482         1.585962         2.574650
 C        -1.842039         1.152799         1.096066
 C        -0.580513         0.378466         0.934295
 C         0.258879         0.651918        -0.304685
 O        -0.102657         1.232494        -1.287973
 C        -1.672529         2.609199         0.729435
 H        -2.970190         4.576472        -0.545856
 H        -4.089265         2.631204         0.604450
 H        -2.071552         3.872479         2.761167
 H        -1.396669         1.212198         3.220901
 H        -3.249297         1.263699         2.902585
 H        -2.699854         0.718165         0.414863
 H         0.071020         0.653251         1.839080
 H        -0.497230        -0.771442         0.960202
 H         1.344083         0.458586        -0.227988
 H        -0.949840         3.044700         0.036508
