19
Iteration:  1952
 O        -3.550979         4.709937         0.860200
 C        -3.250338         3.338960         0.978461
 C        -2.431937         3.033413         2.180495
 C        -2.319814         1.476185         2.254311
 C        -1.725792         1.317089         0.889113
 C        -0.284685         0.917151         0.828544
 C         0.058627         0.096490        -0.385154
 O         0.656593         0.544062        -1.372201
 C        -1.842078         2.885264         0.716145
 H        -3.894088         4.741545        -0.079906
 H        -4.177229         2.790415         0.671039
 H        -2.082625         3.669654         2.962181
 H        -1.547855         1.368765         3.004277
 H        -3.294432         0.875026         2.621183
 H        -2.348656         0.782480         0.086807
 H         0.270258         1.810002         0.885627
 H        -0.158283         0.325989         1.730690
 H        -0.146990        -1.060178        -0.421265
 H        -1.068748         3.471764         0.361076
