19
Iteration:   687
 O        -3.243469         5.040048         1.451473
 C        -2.897456         3.884174         0.854836
 C        -3.251371         2.631521         1.578201
 C        -3.027492         1.345991         0.778259
 C        -1.489987         1.744382         0.535457
 C        -0.262022         0.864722         1.104679
 C         0.046830         0.067693        -0.222831
 O         1.080433        -0.221469        -0.793392
 C        -1.781270         2.948992         1.478258
 H        -2.437800         5.509559         1.667797
 H        -3.015861         3.850354        -0.221312
 H        -4.162878         2.589010         2.237560
 H        -3.114504         0.433206         1.356942
 H        -3.624032         1.312192        -0.171573
 H        -1.328235         2.078718        -0.476587
 H         0.579239         1.509146         1.427953
 H        -0.561656         0.148673         1.958521
 H        -0.922021        -0.204528        -0.682571
 H        -1.141613         3.421108         2.298820
