19
Iteration:   344charge 0 multiplicity 1
 O        -3.663217         4.928376         1.512271
 C        -2.778941         3.933950         0.999413
 C        -3.093647         2.431718         1.132609
 C        -2.428093         1.501953         0.151484
 C        -1.089787         2.035480         0.693138
 C         0.107507         1.021768         1.125574
 C         0.523386         0.005980         0.010512
 O        -0.368001        -0.458100        -0.662567
 C        -1.782431         2.953684         1.801170
 H        -3.080837         5.697328         1.407781
 H        -2.385002         4.261483         0.027521
 H        -4.104409         2.203189         1.409377
 H        -2.744094         0.437347         0.337547
 H        -2.733210         1.644497        -0.873331
 H        -0.692149         2.703420        -0.056702
 H         0.892700         1.584179         1.486286
 H        -0.248322         0.527811         2.020614
 H         1.480805        -0.473407        -0.031241
 H        -1.731672         2.858976         2.925306
