19
Iteration:  1820
 O        -3.232154         4.513905         0.290755
 C        -3.077854         3.229492         0.809964
 C        -2.230735         3.040050         2.106004
 C        -2.254537         1.601733         2.590497
 C        -1.725380         1.026928         1.125909
 C        -0.460730         0.256611         0.871251
 C         0.215005         0.545051        -0.387367
 O        -0.172390         1.449588        -1.096424
 C        -1.745045         2.603934         0.751598
 H        -3.029891         4.315818        -0.659620
 H        -4.006219         2.632436         0.780166
 H        -2.022215         3.988781         2.643092
 H        -1.476838         1.609824         3.332592
 H        -3.247272         1.123003         2.856270
 H        -2.613830         0.409092         0.651799
 H         0.417224         0.346663         1.510859
 H        -0.663187        -0.804071         1.029933
 H         1.143524        -0.168706        -0.552709
 H        -1.009555         3.125750         0.053609
