19
Iteration:  4541charge 0 multiplicity 1
 O        -3.073505         4.900778         2.020175
 C        -2.264188         4.101507         1.209652
 C        -3.186128         3.132812         0.633408
 C        -2.520663         2.162142        -0.339814
 C        -1.386417         1.797099         0.687268
 C        -0.966756         0.365166         1.080894
 C        -0.248269        -0.341715        -0.154435
 O         0.940890        -0.419710        -0.274552
 C        -2.182893         2.673378         1.660013
 H        -2.623952         5.048772         2.840356
 H        -1.379721         4.507380         0.654644
 H        -4.231799         3.328916         0.667655
 H        -3.059434         1.123782        -0.570684
 H        -2.118454         2.458502        -1.363544
 H        -0.480890         2.369934         0.575245
 H        -0.154471         0.494852         1.775117
 H        -1.836717        -0.126984         1.674765
 H        -0.858621        -0.611024        -1.023898
 H        -2.365407         2.609601         2.749822
