19
Iteration:  2619
 O        -3.535833         4.363292         0.467018
 C        -3.268454         3.048640         0.870567
 C        -2.220636         3.057492         1.991996
 C        -2.143081         1.567672         2.555785
 C        -1.534119         1.123715         1.132719
 C         0.007683         0.896048         1.132050
 C         0.349218         0.791693        -0.393180
 O        -0.442297         0.868284        -1.320596
 C        -1.840354         2.590753         0.582509
 H        -3.535872         4.346822        -0.491835
 H        -4.194251         2.298938         0.993110
 H        -1.964377         3.944774         2.537006
 H        -1.344546         1.551572         3.433450
 H        -3.062679         1.137135         2.878558
 H        -2.216266         0.313898         0.675268
 H         0.683748         1.604708         1.504126
 H         0.469874        -0.007318         1.611251
 H         1.447882         0.657766        -0.698399
 H        -1.188605         3.146516        -0.090784
