19
Iteration:  3692
 O        -3.547321         4.719374         2.037751
 C        -3.043884         3.818383         1.082223
 C        -2.835444         2.447874         1.646517
 C        -2.533473         1.496167         0.501763
 C        -1.226835         2.334849         0.115264
 C        -0.079118         1.350505         0.265189
 C        -0.093708        -0.023468        -0.434424
 O         0.309092        -1.016928         0.084520
 C        -1.624709         3.293963         1.275723
 H        -3.274213         5.635510         1.859827
 H        -3.343517         4.058876         0.078570
 H        -3.010981         2.208680         2.665847
 H        -2.451678         0.507789         0.808937
 H        -3.295903         1.534741        -0.312923
 H        -1.208250         2.804676        -0.811268
 H         0.813158         1.866129        -0.109354
 H         0.006387         1.196882         1.272834
 H        -0.626853         0.026938        -1.539273
 H        -0.874911         3.857759         1.957131
