19
Iteration:  4271charge 0 multiplicity 1
 O        -3.602344         4.526050         2.076551
 C        -2.700471         4.009830         1.198983
 C        -3.064222         2.690965         0.731663
 C        -2.101449         2.088611        -0.311992
 C        -0.805376         2.397879         0.597979
 C        -0.047464         1.026588         0.896030
 C        -0.051100         0.018652        -0.189386
 O        -0.434391        -1.112432        -0.177114
 C        -1.811871         2.859622         1.727711
 H        -3.079011         5.177933         2.605242
 H        -2.365453         4.667185         0.326476
 H        -4.171273         2.464604         0.764240
 H        -2.192278         1.060235        -0.288532
 H        -2.103575         2.601637        -1.274351
 H        -0.045145         3.014954         0.256270
 H         1.037257         1.046334         1.070870
 H        -0.382504         0.593728         1.819411
 H         0.350328         0.467719        -1.150917
 H        -1.830976         2.733173         2.910610
