19
Iteration:  2054
 O        -3.873739         4.681295         1.065953
 C        -3.358950         3.357552         1.087035
 C        -2.410547         3.065809         2.217724
 C        -2.217207         1.575735         2.337047
 C        -1.758265         1.606107         0.808852
 C        -0.330195         0.902073         0.481320
 C         0.011122         0.350918        -0.915478
 O         1.093992        -0.189335        -0.949729
 C        -1.846139         3.032334         0.787967
 H        -3.992823         4.919135         0.147394
 H        -4.058223         2.598618         0.820857
 H        -2.335709         3.829216         3.021790
 H        -1.279946         1.362097         2.837540
 H        -3.130596         0.896910         2.678236
 H        -2.571619         1.202382         0.172916
 H         0.428609         1.631196         0.527390
 H        -0.155112         0.095240         1.170884
 H        -0.467762         0.643266        -1.835288
 H        -1.344771         3.851135         0.142161
