19
Iteration:   875
 O        -3.418308         4.793941         1.939666
 C        -3.188686         3.804184         0.987415
 C        -3.097953         2.498954         1.554233
 C        -2.707688         1.478009         0.575896
 C        -1.381733         2.224312         0.131525
 C        -0.077317         1.359319         0.378812
 C        -0.055574        -0.076768        -0.105015
 O         0.888706        -0.841332        -0.148179
 C        -1.719002         3.175807         1.269116
 H        -3.208947         5.709841         1.639184
 H        -3.594206         3.820578        -0.003547
 H        -3.502565         2.077966         2.523832
 H        -2.690996         0.419443         1.091029
 H        -3.555693         1.428057        -0.154210
 H        -1.207052         2.563040        -0.962748
 H         0.787570         1.903940         0.056177
 H         0.124344         1.438580         1.437726
 H        -1.068146        -0.398850        -0.472938
 H        -1.176327         3.796541         1.918250
