19
Iteration:  2090charge 0 multiplicity 1
 O        -3.913499         4.736564         1.185561
 C        -3.403159         3.373378         1.112346
 C        -2.328396         3.103619         2.116875
 C        -2.166649         1.556693         2.216641
 C        -1.755597         1.535276         0.727517
 C        -0.263882         0.908995         0.664933
 C         0.211439         0.563893        -0.759743
 O         0.971151        -0.367077        -1.031736
 C        -1.996369         3.003905         0.601703
 H        -4.315864         4.899772         0.319857
 H        -4.232924         2.733213         0.953987
 H        -2.142104         3.769624         2.924919
 H        -1.241535         1.227971         2.915586
 H        -2.978198         0.987905         2.620750
 H        -2.392915         0.997867        -0.084235
 H         0.474587         1.527741         1.254267
 H        -0.236677         0.076493         1.254489
 H        -0.172862         1.313366        -1.436330
 H        -1.561842         3.589554        -0.156340
