19
Iteration:   229charge 0 multiplicity 1
 O        -3.415487         4.800562         1.812128
 C        -2.917710         3.852906         0.860298
 C        -3.086077         2.476308         1.196527
 C        -2.507942         1.782865         0.023970
 C        -1.079772         2.219419         0.386005
 C        -0.364042         1.044363         1.130751
 C         0.411481         0.003792         0.264125
 O         0.011242        -0.776127        -0.607454
 C        -1.715081         3.093608         1.475654
 H        -3.295439         4.315623         2.653861
 H        -3.085340         4.341240        -0.077201
 H        -3.698396         2.019831         2.011436
 H        -2.545966         0.700248         0.152450
 H        -3.044206         1.855617        -1.030091
 H        -0.518497         2.716216        -0.384389
 H         0.371857         1.536786         1.907739
 H        -1.217163         0.525488         1.679817
 H         1.531050        -0.002654         0.538979
 H        -1.250806         3.498081         2.436455
