19
Iteration:  2463charge 0 multiplicity 1
 O        -3.884211         4.344298         0.634702
 C        -3.415339         3.131114         1.039596
 C        -2.262267         3.141156         1.986093
 C        -1.823547         1.824532         2.520569
 C        -1.652956         1.265239         1.051114
 C        -0.253395         0.491750         1.012554
 C         0.356069         0.314333        -0.414316
 O         0.327383         1.123784        -1.312728
 C        -2.035888         2.728025         0.440153
 H        -4.323084         4.134770        -0.244675
 H        -4.303713         2.384571         1.128731
 H        -1.834528         4.000645         2.412050
 H        -0.829572         1.783042         2.926716
 H        -2.375962         1.291879         3.252061
 H        -2.478491         0.562140         0.659900
 H         0.456994         1.098085         1.443704
 H        -0.324958        -0.510737         1.491429
 H         1.071447        -0.566282        -0.380231
 H        -1.436458         3.205818        -0.304182
