19
Iteration:   395charge 0 multiplicity 1
 O        -3.452850         4.812329         1.560015
 C        -2.786187         3.835494         0.833548
 C        -3.126251         2.368865         1.247589
 C        -2.349016         1.353389         0.263376
 C        -1.048919         2.136312         0.634379
 C        -0.172948         1.059081         1.154172
 C         0.289210         0.042043         0.220198
 O        -0.253593        -0.298824        -0.833746
 C        -1.805684         3.077456         1.596498
 H        -2.707491         5.209221         2.082734
 H        -2.545321         4.149030        -0.179931
 H        -3.800964         2.226688         2.061144
 H        -2.397139         0.251233         0.616263
 H        -2.709486         1.377934        -0.821712
 H        -0.556204         2.629947        -0.260312
 H         0.759447         1.486226         1.725238
 H        -0.807361         0.588817         1.998071
 H         1.305564        -0.458023         0.422057
 H        -1.587457         3.439261         2.541622
