19
Iteration:    51
 O        -3.573505         4.945343         1.629258
 C        -2.740386         3.923094         1.024263
 C        -3.117810         2.510046         0.978350
 C        -2.200188         1.693563         0.015221
 C        -0.944826         2.126232         0.853180
 C        -0.276105         0.790229         1.136825
 C         0.217845         0.305944        -0.149045
 O        -0.114676        -0.800556        -0.552814
 C        -1.860132         2.936044         1.843504
 H        -3.863116         5.494475         0.852457
 H        -2.251475         4.305934         0.105110
 H        -3.915693         1.966783         1.564644
 H        -2.360418         0.636503         0.304646
 H        -2.325726         2.041745        -1.096431
 H        -0.192216         2.734922         0.313766
 H         0.607115         0.795402         1.866907
 H        -0.965394         0.066859         1.643211
 H         0.851092         1.002608        -0.882404
 H        -1.852222         2.792386         2.903600
