19
Iteration:   821
 O        -3.331961         4.831593         1.844353
 C        -3.089517         3.789870         0.964401
 C        -3.040155         2.523180         1.654375
 C        -2.804020         1.392373         0.586750
 C        -1.538497         2.126269         0.152819
 C        -0.314513         1.207202         0.746026
 C        -0.057635        -0.067653        -0.203852
 O         1.023962        -0.586677        -0.266142
 C        -1.716091         3.201003         1.086982
 H        -2.599271         5.447262         1.960060
 H        -3.481091         3.880914        -0.070218
 H        -3.380618         2.435992         2.688006
 H        -2.412826         0.448313         1.094405
 H        -3.650522         1.154865        -0.017415
 H        -1.317719         2.374291        -0.919067
 H         0.613195         1.815412         0.891054
 H        -0.685444         0.912621         1.766986
 H        -0.827165        -0.471488        -0.931744
 H        -0.906322         3.595469         1.666295
