19
Iteration:  2474
 O        -3.926737         4.316212         0.659291
 C        -3.284394         3.064601         0.977143
 C        -2.247580         3.242557         2.037122
 C        -1.820706         1.822768         2.466671
 C        -1.634514         1.273400         0.995597
 C        -0.323286         0.542354         0.934867
 C         0.357285         0.294476        -0.367685
 O         0.288581         1.131029        -1.264845
 C        -1.966527         2.669637         0.486778
 H        -4.464210         4.248273        -0.165125
 H        -3.992169         2.125793         1.094476
 H        -2.112373         4.211057         2.482931
 H        -0.843120         1.969639         2.912530
 H        -2.498835         1.248567         3.088398
 H        -2.480034         0.505575         0.769222
 H         0.339962         0.970568         1.586112
 H        -0.534541        -0.350563         1.559871
 H         0.940949        -0.611302        -0.604028
 H        -1.440138         3.234587        -0.234856
