19
Iteration:  1984
 O        -3.647126         4.741641         1.018165
 C        -3.365056         3.343801         0.948687
 C        -2.479704         3.036714         2.139865
 C        -2.373432         1.475116         2.347913
 C        -1.631414         1.438644         0.936900
 C        -0.209026         0.986218         0.715246
 C        -0.005044         0.143530        -0.544884
 O         0.895598         0.236668        -1.348540
 C        -1.891877         2.962127         0.693718
 H        -3.699618         4.917653         0.070141
 H        -4.276951         2.674447         0.715724
 H        -2.186981         3.823265         2.793204
 H        -1.764328         1.351490         3.269122
 H        -3.407187         0.884014         2.474541
 H        -2.062344         0.804833         0.185732
 H         0.568502         1.764095         0.823414
 H        -0.074078         0.249269         1.596165
 H        -0.768688        -0.696941        -0.603553
 H        -1.143579         3.547253         0.289019
