19
Iteration:  3660charge 0 multiplicity 1
 O        -3.504166         4.712769         2.061875
 C        -3.049869         3.787445         1.108492
 C        -2.789870         2.390651         1.659405
 C        -2.633530         1.350626         0.499240
 C        -1.247769         2.259959         0.115565
 C         0.098617         1.444957         0.380557
 C         0.131219         0.158399        -0.416497
 O        -0.018075        -1.005569         0.067103
 C        -1.614007         3.296471         1.081094
 H        -3.319260         5.595823         1.764667
 H        -3.474138         3.997440         0.119187
 H        -2.839745         2.141679         2.689573
 H        -2.595421         0.403691         0.928376
 H        -3.573012         1.389577        -0.155223
 H        -1.152364         2.610190        -0.848827
 H         0.832578         2.176050         0.092254
 H         0.236994         1.288970         1.389173
 H         0.025269         0.317726        -1.479472
 H        -0.855113         4.056024         1.554886
