19
Iteration:  4366charge 0 multiplicity 1
 O        -3.426127         4.645950         2.344514
 C        -2.728247         4.218374         1.285107
 C        -3.100445         2.817841         0.644676
 C        -2.269670         2.356869        -0.598958
 C        -0.956244         2.227442         0.402854
 C        -0.557629         0.807759         0.857123
 C         0.081071        -0.084986        -0.104768
 O         0.153942        -1.264290         0.042695
 C        -1.905109         2.795727         1.513318
 H        -2.802670         4.999932         2.970396
 H        -2.309869         4.941915         0.617495
 H        -3.990079         2.257969         1.008459
 H        -2.809398         1.373289        -0.917859
 H        -2.215746         3.190225        -1.280499
 H        -0.163386         3.039845         0.094717
 H         0.271527         0.929330         1.599232
 H        -1.351276         0.267540         1.468008
 H         0.429245         0.444619        -1.050312
 H        -1.796788         2.331491         2.552053
