19
Iteration:  4785
 O        -3.228759         4.880264         1.850244
 C        -2.207459         4.038656         1.390298
 C        -2.867806         2.944586         0.415347
 C        -1.874410         2.158757        -0.350850
 C        -1.189131         1.698239         0.983191
 C        -1.234965         0.124048         1.133020
 C        -0.018182        -0.279143         0.339400
 O         0.093195         0.046955        -0.860176
 C        -2.208450         2.672857         1.727406
 H        -2.862355         5.291881         2.688122
 H        -1.238196         4.597528         1.093423
 H        -3.892268         3.195422         0.206884
 H        -2.423228         1.324831        -0.800263
 H        -1.197618         2.690937        -1.111951
 H        -0.184546         1.976444         1.037801
 H        -1.127453        -0.200323         2.163656
 H        -2.158255        -0.291998         0.725130
 H         0.933737        -0.563654         1.016155
 H        -2.801108         2.444737         2.696030
