19
Iteration:   579charge 0 multiplicity 1
 O        -3.052120         4.973006         1.690320
 C        -2.908403         3.805030         0.800762
 C        -3.251900         2.480908         1.393505
 C        -2.893207         1.290006         0.571741
 C        -1.414646         1.835209         0.490295
 C        -0.301500         0.986716         1.061826
 C        -0.041268        -0.110375         0.086308
 O         0.813678         0.026273        -0.754625
 C        -1.782645         3.004718         1.362820
 H        -2.862936         5.771864         1.135783
 H        -3.063970         4.049550        -0.316658
 H        -3.974854         2.338074         2.235688
 H        -2.931773         0.416006         1.228699
 H        -3.354340         0.943593        -0.317008
 H        -1.069780         2.088205        -0.561820
 H         0.583125         1.623846         1.233831
 H        -0.625838         0.464289         1.994267
 H        -0.718214        -0.989068         0.135897
 H        -1.338402         3.399543         2.266923
