19
Iteration:  1431
 O        -3.756205         4.617687         1.549858
 C        -3.143228         3.485315         0.918670
 C        -2.537197         2.598983         1.973487
 C        -2.308139         1.267912         1.306823
 C        -1.288511         2.056061         0.267515
 C         0.089460         1.531386         0.449990
 C         0.150547         0.016237         0.177331
 O        -0.119948        -0.502719        -0.873615
 C        -1.668490         3.383784         0.994939
 H        -3.816368         5.313511         0.845412
 H        -3.676671         3.017378         0.117249
 H        -2.573012         2.867253         3.069797
 H        -1.727453         0.438693         1.911312
 H        -3.131618         0.727138         0.854369
 H        -1.597557         1.892483        -0.746256
 H         0.749879         1.902138        -0.314618
 H         0.589954         1.793947         1.420622
 H         0.355989        -0.570286         1.116628
 H        -1.031839         4.278954         1.048470
