19
Iteration:  4160charge 0 multiplicity 1
 O        -3.397777         4.810931         2.038340
 C        -2.757581         4.027720         1.030082
 C        -3.122021         2.572737         0.984030
 C        -2.445522         1.692607        -0.085681
 C        -1.018736         2.114526         0.525950
 C        -0.170272         0.908582         1.193926
 C         0.355114        -0.035058         0.069099
 O        -0.346141        -0.667130        -0.744802
 C        -1.802336         2.982357         1.577879
 H        -2.784901         5.458415         2.439722
 H        -2.375011         4.676916         0.177617
 H        -3.989953         2.333056         1.530036
 H        -2.639678         0.572055         0.011975
 H        -2.525796         1.910326        -1.120452
 H        -0.422522         2.732010        -0.213780
 H         0.792459         1.115710         1.657827
 H        -0.808648         0.403429         1.954468
 H         1.440403         0.007901        -0.093662
 H        -1.596004         2.901784         2.635745
