19
Iteration:  1532
 O        -3.518077         4.811967         1.106699
 C        -3.135187         3.465696         0.914075
 C        -2.780967         2.673424         2.099733
 C        -2.373610         1.202281         1.685455
 C        -1.392584         1.672244         0.616982
 C         0.019968         1.342038         0.723663
 C         0.462735         0.467302        -0.397950
 O        -0.258962        -0.363036        -0.925396
 C        -1.670580         3.099835         1.043221
 H        -3.348164         5.318159         0.309993
 H        -3.674003         2.800345         0.199205
 H        -2.874840         2.982477         3.111598
 H        -1.868975         0.598615         2.550999
 H        -3.252868         0.576613         1.458722
 H        -1.868070         1.352582        -0.333124
 H         0.578251         2.280999         0.859851
 H         0.261271         0.904750         1.696611
 H         1.524643         0.599076        -0.704257
 H        -0.947036         3.913789         0.922691
