19
Iteration:  1228
 O        -3.689975         4.659628         1.536447
 C        -3.102310         3.552176         0.884534
 C        -2.737978         2.523078         1.860501
 C        -2.450528         1.250559         1.103096
 C        -1.279934         1.959914         0.344927
 C         0.029706         1.390375         0.604893
 C         0.417817         0.384117        -0.366673
 O        -0.204415        -0.637642        -0.433931
 C        -1.593134         3.308974         1.192224
 H        -3.257844         5.519535         1.279508
 H        -3.433199         3.285885        -0.110870
 H        -3.186834         2.752644         2.892161
 H        -2.056158         0.457260         1.799318
 H        -3.396688         0.790923         0.638888
 H        -1.632381         1.903687        -0.756060
 H         0.674239         2.260815         0.406071
 H         0.456674         1.191001         1.615809
 H         1.361055         0.511582        -1.163453
 H        -0.969346         4.112096         1.499190
