19
Iteration:    47charge 0 multiplicity 1
 O        -3.572656         4.972442         1.644250
 C        -2.748315         3.931196         0.998515
 C        -3.140607         2.476900         0.988595
 C        -2.206905         1.715636         0.005018
 C        -0.925965         2.157452         0.842542
 C        -0.260958         0.781999         1.166140
 C         0.240100         0.272277        -0.157441
 O        -0.108243        -0.813998        -0.559818
 C        -1.851699         2.925321         1.848336
 H        -4.014409         5.422787         0.910147
 H        -2.269117         4.370852         0.090765
 H        -3.950496         2.051472         1.560116
 H        -2.379692         0.563845         0.104780
 H        -2.298218         2.008971        -1.042248
 H        -0.225666         2.811684         0.333595
 H         0.580175         0.782075         1.914013
 H        -0.974789         0.022730         1.549957
 H         0.680717         0.983203        -0.823469
 H        -1.856921         2.893613         2.977287
