19
Iteration:  4848
 O        -3.391830         4.886779         1.900198
 C        -2.436390         3.989720         1.379732
 C        -2.809065         3.001963         0.296687
 C        -1.437057         2.432273        -0.304173
 C        -1.053084         1.838150         1.114907
 C        -0.785631         0.416469         1.313047
 C        -0.205566        -0.393066         0.192458
 O        -0.193268        -0.307318        -0.990644
 C        -2.369426         2.535071         1.676320
 H        -3.113745         5.031881         2.834653
 H        -1.394280         4.431544         1.183482
 H        -3.760995         3.052313        -0.210275
 H        -1.692296         1.591118        -0.971365
 H        -0.625314         3.116467        -0.564933
 H        -0.211543         2.550139         1.592510
 H        -0.321308         0.121584         2.245908
 H        -1.839513        -0.096183         1.380083
 H         0.153819        -1.409600         0.632329
 H        -3.018395         2.084487         2.499236
