19
Iteration:  2201
 O        -3.601978         4.559322         0.762238
 C        -3.335496         3.120716         0.896351
 C        -2.435270         3.044620         2.092626
 C        -2.127910         1.510074         2.368647
 C        -1.534400         1.293111         0.981295
 C        -0.026521         0.990468         0.924967
 C         0.331577         0.992352        -0.521988
 O         0.050156         0.040365        -1.249961
 C        -1.916955         2.800616         0.721014
 H        -3.839303         4.592531        -0.181573
 H        -4.185544         2.496436         0.800415
 H        -2.193877         3.851004         2.853169
 H        -1.403153         1.266507         3.292618
 H        -3.070959         0.968003         2.542624
 H        -2.047648         0.591066         0.302071
 H         0.482418         1.716465         1.572744
 H         0.094112         0.033645         1.259602
 H         0.668372         1.975509        -1.021717
 H        -1.466832         3.479257         0.004496
