19
Iteration:  2720charge 0 multiplicity 1
 O        -3.766571         4.517628         0.729615
 C        -3.332929         3.185607         0.964294
 C        -2.479607         3.124380         2.180900
 C        -2.024916         1.615719         2.465881
 C        -1.588421         1.409217         1.014343
 C        -0.169501         0.849621         0.835385
 C         0.479149         0.744859        -0.504780
 O         0.156832         0.067175        -1.455145
 C        -1.914843         2.889477         0.763571
 H        -3.734454         4.798898        -0.226056
 H        -4.123228         2.341425         0.745276
 H        -2.737172         4.009166         2.817156
 H        -1.050311         1.552834         3.182389
 H        -2.660015         0.946557         2.955098
 H        -2.367270         0.695603         0.607557
 H         0.531803         1.371858         1.405491
 H        -0.157358        -0.256311         1.093032
 H         1.373374         1.390876        -0.567718
 H        -1.284147         3.558320         0.128386
