19
Iteration:  2369charge 0 multiplicity 1
 O        -3.596258         4.375325         0.469518
 C        -3.407134         3.090312         1.036661
 C        -2.211860         3.005422         1.898114
 C        -2.003753         1.607917         2.501933
 C        -1.567505         1.129185         1.078614
 C        -0.012256         0.912149         1.086015
 C         0.332398         0.514154        -0.332191
 O        -0.147348         1.095390        -1.290576
 C        -1.971203         2.539156         0.540725
 H        -3.872891         4.339962        -0.454941
 H        -4.307611         2.531175         1.232891
 H        -1.984898         3.905390         2.465086
 H        -1.362429         1.515851         3.458097
 H        -2.994389         1.308150         2.958525
 H        -2.035312         0.332033         0.502780
 H         0.536255         1.828784         1.237256
 H         0.177657         0.255876         1.905993
 H         0.989151        -0.453077        -0.444011
 H        -1.490528         2.944046        -0.280461
