19
Iteration:  2754charge 0 multiplicity 1
 O        -3.844351         4.507297         0.841979
 C        -3.330787         3.236971         1.027106
 C        -2.357392         3.132684         2.172329
 C        -2.121247         1.511642         2.311086
 C        -1.608960         1.452558         0.851489
 C        -0.146695         0.921074         0.800077
 C         0.446127         0.810344        -0.528195
 O         0.231070        -0.135216        -1.277136
 C        -1.870650         2.992338         0.745740
 H        -4.000185         4.480254        -0.153292
 H        -4.189540         2.427012         0.860574
 H        -2.293201         4.037439         2.942361
 H        -1.054944         1.335200         2.927473
 H        -2.965377         1.010740         2.672204
 H        -2.184336         0.780077         0.111541
 H         0.455297         1.540880         1.430458
 H        -0.307347        -0.113000         1.291181
 H         1.026281         1.697637        -0.848947
 H        -1.133289         3.744842         0.348869
