19
Iteration:  3725
 O        -3.452156         4.774577         2.018882
 C        -2.938338         3.848806         1.071569
 C        -2.948890         2.457030         1.584484
 C        -2.664295         1.493881         0.491230
 C        -1.330069         2.201368         0.111664
 C        -0.145839         1.370105         0.326005
 C        -0.186275         0.017777        -0.282334
 O         0.535746        -0.906128        -0.043679
 C        -1.639779         3.145849         1.300595
 H        -2.935270         5.633043         1.867566
 H        -3.070990         4.084540         0.034194
 H        -3.240871         2.207201         2.595837
 H        -2.581990         0.528118         0.821028
 H        -3.227594         1.610266        -0.439801
 H        -1.333406         2.769493        -0.773473
 H         0.782091         1.782366        -0.108522
 H         0.048394         1.341155         1.335515
 H        -1.025653        -0.222008        -0.967394
 H        -0.828958         3.514845         2.041012
