19
Iteration:  1580charge 0 multiplicity 1
 O        -3.592534         4.793855         1.058672
 C        -3.164896         3.434989         0.898850
 C        -2.701914         2.781492         2.115552
 C        -2.436166         1.345150         1.898018
 C        -1.441369         1.619968         0.766231
 C         0.041976         1.128558         0.811654
 C         0.446821         0.509601        -0.477044
 O        -0.114976        -0.360474        -1.141277
 C        -1.710827         3.123845         0.956762
 H        -3.097264         5.368691         0.431293
 H        -3.781651         2.902024         0.095089
 H        -2.969146         3.190392         3.104518
 H        -1.963503         0.910533         2.758565
 H        -3.237729         0.584363         1.593004
 H        -1.898125         1.483044        -0.260355
 H         0.755922         1.922239         1.208274
 H         0.201434         0.346147         1.547287
 H         1.503256         0.739674        -0.639188
 H        -0.940919         3.879477         1.028693
