19
Iteration:  4467
 O        -3.111799         4.957777         2.020475
 C        -2.407259         4.047957         1.179142
 C        -3.327448         2.946594         0.697373
 C        -2.349038         2.190780        -0.319426
 C        -1.301665         1.998662         0.746419
 C        -0.753057         0.646802         0.981132
 C        -0.128289        -0.050317        -0.233441
 O         0.726077        -0.935827        -0.230023
 C        -2.261234         2.621347         1.726822
 H        -2.370411         5.189535         2.670134
 H        -1.673110         4.394574         0.461243
 H        -4.379395         2.744047         0.853152
 H        -2.658546         1.413158        -0.936870
 H        -1.937135         2.821902        -1.071804
 H        -0.426843         2.751650         0.577767
 H        -0.111320         0.578417         1.884759
 H        -1.354718        -0.229911         1.219904
 H        -0.556966         0.296733        -1.212685
 H        -2.332172         2.437065         2.809933
