19
Iteration:  3780charge 0 multiplicity 1
 O        -3.190992         4.914321         2.020664
 C        -3.000521         4.015722         1.015358
 C        -3.121739         2.551038         1.565086
 C        -2.902448         1.426313         0.467958
 C        -1.447526         2.101090         0.181579
 C        -0.270261         1.151147         0.514471
 C        -0.111418        -0.168625        -0.286369
 O         0.961574        -0.768917        -0.277225
 C        -1.817956         3.174236         1.326986
 H        -2.518485         5.628509         1.905189
 H        -3.386571         4.193975         0.046094
 H        -3.530211         2.533496         2.623134
 H        -2.669984         0.550848         0.949214
 H        -3.603190         1.123782        -0.297517
 H        -1.140327         2.753448        -0.741155
 H         0.710991         1.673970         0.315503
 H        -0.258111         0.985729         1.555070
 H        -1.028360        -0.642925        -0.655450
 H        -1.142953         3.434883         2.217733
