19
Iteration:  4693
 O        -2.843937         4.965291         2.193903
 C        -2.308296         3.988302         1.284492
 C        -3.228548         3.055774         0.492871
 C        -2.413646         2.275011        -0.601552
 C        -1.490995         1.866930         0.664454
 C        -1.088029         0.405720         1.064988
 C         0.066831        -0.457097         0.381664
 O         0.744179        -0.252121        -0.573468
 C        -2.374128         2.508024         1.564622
 H        -2.374371         5.000674         3.033820
 H        -1.307329         4.305964         0.752485
 H        -4.262709         3.404782         0.434120
 H        -3.051930         1.502712        -1.149025
 H        -1.951253         2.991389        -1.279591
 H        -0.459263         2.316922         0.603785
 H        -0.885956         0.441480         2.151752
 H        -2.034512        -0.246176         1.038552
 H         0.335468        -1.365910         0.991862
 H        -2.668031         2.119578         2.500472
