19
Iteration:  2960charge 0 multiplicity 1
 O        -3.744974         4.837167         1.088825
 C        -3.412630         3.415282         1.127914
 C        -2.368301         3.107421         2.139370
 C        -2.175818         1.572672         2.298998
 C        -1.862775         1.423996         0.823532
 C        -0.492856         0.698631         0.554387
 C         0.024459         0.238036        -0.829903
 O         1.224559         0.129209        -1.033916
 C        -1.950528         2.946707         0.710298
 H        -3.828300         5.099922         0.158069
 H        -4.235095         2.740173         0.972841
 H        -2.107413         3.936556         2.763794
 H        -1.414548         1.263468         3.110224
 H        -3.133562         1.015043         2.589911
 H        -2.520245         0.687260         0.284767
 H         0.407519         1.258920         0.934878
 H        -0.448375        -0.207365         0.993109
 H        -0.664130         0.054711        -1.690919
 H        -1.168589         3.462386         0.300607
