19
Iteration:   488
 O        -3.408144         5.028817         1.735142
 C        -2.975891         3.910960         0.932285
 C        -3.120302         2.475149         1.460921
 C        -2.658173         1.418843         0.349213
 C        -1.232487         1.997865         0.370538
 C        -0.354255         1.000117         1.020406
 C         0.153179        -0.238545         0.263248
 O         0.574478        -0.297891        -0.900525
 C        -1.779202         3.018531         1.427371
 H        -2.990905         5.863157         1.456370
 H        -3.106915         4.032754        -0.142811
 H        -3.797141         2.329992         2.303896
 H        -2.569300         0.468833         0.789561
 H        -3.218973         1.241136        -0.574373
 H        -0.749165         2.474184        -0.441763
 H         0.665892         1.347410         1.226965
 H        -0.805450         0.692051         2.065677
 H         0.515349        -1.027893         0.957657
 H        -1.316860         3.479830         2.322936
