19
Iteration:    10charge 0 multiplicity 1
 O        -3.411176         4.840121         1.790583
 C        -2.775721         3.927892         1.001446
 C        -3.183883         2.593272         0.879423
 C        -2.368416         1.871454        -0.150581
 C        -1.068425         2.182237         0.706306
 C        -0.304054         0.877465         1.118336
 C         0.274522         0.179119         0.009419
 O        -0.001384        -0.928512        -0.475496
 C        -1.854950         2.927752         1.714383
 H        -4.012107         4.360384         2.364595
 H        -2.327634         4.323424         0.121016
 H        -3.991729         2.169948         1.504726
 H        -2.457367         0.839265        -0.168545
 H        -2.198785         2.427266        -1.040885
 H        -0.261813         2.840304         0.227003
 H         0.491384         1.379678         1.657855
 H        -0.793996         0.252981         1.834690
 H         1.061250         0.719735        -0.429521
 H        -1.870531         2.960490         2.763750
