19
Iteration:  1309
 O        -3.495154         4.781865         1.760510
 C        -3.167571         3.649696         0.970929
 C        -2.718573         2.529785         1.857975
 C        -2.630170         1.187466         1.058379
 C        -1.555593         1.914725         0.159805
 C        -0.060765         1.514201         0.416809
 C         0.626907         0.272956        -0.003751
 O         0.016848        -0.676934        -0.516063
 C        -1.681459         3.171254         0.916498
 H        -3.598834         5.664972         1.332541
 H        -3.852009         3.380142         0.175495
 H        -2.871612         2.704883         2.909468
 H        -2.247484         0.426670         1.738288
 H        -3.618603         0.861185         0.681854
 H        -1.882542         1.921071        -0.849625
 H         0.472489         2.187091        -0.179827
 H         0.269492         1.671039         1.453808
 H         1.722682         0.386914         0.195125
 H        -0.827887         3.803354         1.332126
