19
Iteration:  2796charge 0 multiplicity 1
 O        -3.813039         4.604467         0.988711
 C        -3.345706         3.269160         0.992811
 C        -2.395038         3.022901         2.117540
 C        -2.220103         1.490632         2.239197
 C        -1.607014         1.442856         0.827507
 C        -0.054602         1.097258         0.877437
 C         0.213179         0.819099        -0.668400
 O         0.416416        -0.293403        -1.127700
 C        -1.853025         2.951614         0.691978
 H        -4.159638         5.050118         0.213686
 H        -4.011931         2.422862         0.714704
 H        -2.176948         3.916875         2.827757
 H        -1.436853         0.928161         2.928965
 H        -3.121859         0.906846         2.377617
 H        -2.159035         0.870385         0.080159
 H         0.523218         1.927688         1.055400
 H         0.410366         0.108035         1.366483
 H         0.369177         1.728281        -1.321494
 H        -1.072652         3.622484         0.231400
