19
Iteration:  2088
 O        -3.922970         4.739509         1.183514
 C        -3.392302         3.373233         1.102678
 C        -2.330736         3.106335         2.134828
 C        -2.156653         1.565354         2.227640
 C        -1.776524         1.545668         0.720554
 C        -0.250608         0.912153         0.651241
 C         0.208069         0.553610        -0.760073
 O         0.985076        -0.366167        -1.033904
 C        -1.981412         2.990066         0.612820
 H        -4.317234         4.909064         0.336243
 H        -4.212673         2.745940         0.946459
 H        -2.224307         3.833368         2.908365
 H        -1.287137         1.160830         2.853593
 H        -3.064219         0.942175         2.637061
 H        -2.435445         0.991128         0.012636
 H         0.441106         1.509964         1.207253
 H        -0.267214         0.042629         1.252647
 H        -0.225470         1.250942        -1.465126
 H        -1.545948         3.668378        -0.167476
