19
Iteration:   416
 O        -3.467105         4.870754         1.694734
 C        -2.892234         3.839080         0.834824
 C        -3.152249         2.401292         1.203456
 C        -2.514468         1.430303         0.265972
 C        -1.048164         1.975433         0.487743
 C        -0.061272         1.054576         1.250862
 C         0.326502        -0.077940         0.306134
 O        -0.179531        -0.144194        -0.826973
 C        -1.687479         3.020340         1.456617
 H        -2.734295         5.484036         1.729227
 H        -3.047164         4.096143        -0.238196
 H        -4.010079         2.225820         1.800561
 H        -2.598586         0.421183         0.794989
 H        -2.903827         1.228922        -0.776680
 H        -0.408031         2.269445        -0.412525
 H         0.789586         1.616244         1.817549
 H        -0.580323         0.505344         2.051384
 H         1.058558        -0.861353         0.550712
 H        -1.209234         3.268071         2.339929
