19
Iteration:   999charge 0 multiplicity 1
 O        -3.420905         4.790180         1.928696
 C        -3.226342         3.732002         0.935146
 C        -2.880869         2.442417         1.676906
 C        -2.640928         1.248568         0.677453
 C        -1.431854         2.046440         0.138695
 C        -0.016184         1.512866         0.475098
 C         0.305566         0.277153        -0.380515
 O         0.306944        -0.893461         0.035433
 C        -1.730146         3.218278         1.092835
 H        -2.820512         5.519315         1.626340
 H        -3.955736         3.799720         0.115010
 H        -3.270839         2.465415         2.637829
 H        -2.304450         0.306515         1.147298
 H        -3.456238         1.021360         0.002458
 H        -1.392280         2.483910        -0.901053
 H         0.682729         2.300042         0.270276
 H         0.196009         1.130067         1.479902
 H         0.351554         0.472687        -1.539485
 H        -1.081905         3.981545         1.595352
