19
Iteration:  4673
 O        -2.945751         4.845835         2.153842
 C        -2.298573         4.069169         1.270902
 C        -3.194535         3.194484         0.503281
 C        -2.474506         2.245392        -0.476881
 C        -1.330671         1.764329         0.568430
 C        -1.101033         0.378693         0.918390
 C        -0.035994        -0.491065         0.350578
 O         0.786198        -0.208924        -0.462045
 C        -2.276969         2.639388         1.644015
 H        -2.416138         4.930474         2.936457
 H        -1.293129         4.454629         0.808051
 H        -4.290938         3.321699         0.639348
 H        -3.218293         1.359156        -0.688205
 H        -2.094789         2.581077        -1.496303
 H        -0.419153         2.247466         0.385218
 H        -0.816251         0.385093         1.961033
 H        -2.071407        -0.203272         0.945462
 H        -0.104261        -1.527346         0.718497
 H        -2.470261         2.253422         2.603697
