19
Iteration:  1285charge 0 multiplicity 1
 O        -3.410342         4.810022         1.659642
 C        -3.218765         3.564683         1.006138
 C        -2.811808         2.456568         1.943400
 C        -2.537098         1.193677         1.043139
 C        -1.483281         1.979174         0.212888
 C         0.005825         1.566220         0.532486
 C         0.565955         0.306730        -0.185011
 O        -0.017557        -0.732411        -0.484495
 C        -1.781966         3.244859         0.953377
 H        -3.429944         5.577381         1.091281
 H        -3.900079         3.322540         0.228139
 H        -2.805139         2.556836         3.010182
 H        -2.238372         0.390089         1.656640
 H        -3.469747         0.902323         0.422675
 H        -1.788908         1.788659        -0.829234
 H         0.712320         2.332480         0.454937
 H        -0.001134         1.140733         1.576116
 H         1.692935         0.473955        -0.263379
 H        -1.125592         4.100070         0.995523
