19
Iteration:  4583charge 0 multiplicity 1
 O        -2.895915         4.938474         2.052725
 C        -2.421810         4.004731         1.203493
 C        -3.246899         2.735408         0.729349
 C        -2.275752         2.147178        -0.434506
 C        -1.189748         1.916237         0.597132
 C        -1.300756         0.424823         1.028427
 C        -0.337493        -0.340625        -0.109258
 O         0.850157        -0.127963        -0.157627
 C        -2.032239         2.656158         1.667776
 H        -2.172829         5.479895         2.448384
 H        -1.947152         4.442679         0.203778
 H        -4.249140         2.494997         1.020067
 H        -2.876832         1.247473        -0.821978
 H        -2.104794         2.841963        -1.304225
 H        -0.199211         2.041586         0.267470
 H        -1.044956         0.160328         2.034409
 H        -2.384398         0.174008         0.878298
 H        -1.023250        -1.057404        -0.727250
 H        -1.897135         2.277510         2.734792
