19
Iteration:  1253charge 0 multiplicity 1
 O        -3.588112         4.831482         1.597937
 C        -3.245548         3.581540         0.978738
 C        -2.757699         2.479242         1.865629
 C        -2.478667         1.178900         1.099040
 C        -1.340730         1.930320         0.247307
 C         0.169107         1.503178         0.659117
 C         0.500792         0.348801        -0.289339
 O        -0.146001        -0.697090        -0.483367
 C        -1.756894         3.241967         1.023703
 H        -3.088395         5.573207         1.194723
 H        -3.748400         3.299602         0.087338
 H        -2.699150         2.428667         2.947333
 H        -2.246061         0.388849         1.754804
 H        -3.423873         0.827980         0.499243
 H        -1.757236         1.836928        -0.776733
 H         0.908019         2.218229         0.752979
 H         0.137265         1.098132         1.702084
 H         1.398430         0.451332        -1.085485
 H        -1.162097         4.132367         1.301346
