19
Iteration:  3222
 O        -3.118684         4.753045         0.770886
 C        -3.124667         3.366639         0.933525
 C        -2.274438         2.954075         2.125353
 C        -2.417315         1.450292         2.422239
 C        -1.902230         1.161408         0.900567
 C        -0.614387         0.411513         0.943959
 C         0.360736         0.430730        -0.396184
 O         0.129228         1.039142        -1.449155
 C        -1.816146         2.686409         0.705708
 H        -2.757066         5.027813        -0.130761
 H        -4.119913         2.797967         0.748836
 H        -1.784793         3.749785         2.755364
 H        -1.840661         1.113326         3.291640
 H        -3.482641         1.076081         2.679236
 H        -2.666960         0.559223         0.337521
 H         0.097778         0.725431         1.748429
 H        -0.672045        -0.699957         1.100432
 H         1.296915        -0.111396        -0.155431
 H        -1.100384         3.185518         0.021187
