19
Iteration:  4613
 O        -3.009552         4.840895         2.057203
 C        -2.343449         4.058582         1.102149
 C        -3.122420         2.787853         0.811353
 C        -2.328698         2.241482        -0.445244
 C        -1.229753         1.836572         0.554921
 C        -1.340680         0.301266         0.879570
 C        -0.343092        -0.509768        -0.011400
 O         0.778965         0.016380        -0.135593
 C        -1.926733         2.742901         1.713432
 H        -2.379081         5.332247         2.572457
 H        -1.867942         4.481016         0.231609
 H        -4.213507         2.853041         0.978479
 H        -2.846386         1.446938        -0.874793
 H        -2.149933         2.976705        -1.207330
 H        -0.081315         1.921676         0.260085
 H        -0.910910         0.181761         1.928911
 H        -2.396080         0.042120         0.980170
 H        -0.555550        -1.516936        -0.434679
 H        -1.589384         2.655317         2.803076
