19
Iteration:  2640
 O        -3.567989         4.344897         0.439755
 C        -3.220909         3.092837         0.952945
 C        -2.241997         3.029578         2.110600
 C        -2.048542         1.547453         2.471099
 C        -1.546573         1.233178         0.996356
 C        -0.117991         0.919238         1.022539
 C         0.393069         0.877675        -0.350524
 O        -0.420222         0.686600        -1.235590
 C        -1.796268         2.630213         0.608414
 H        -3.785897         4.227883        -0.531230
 H        -4.062216         2.359482         1.076949
 H        -1.959693         3.849426         2.731807
 H        -1.351422         1.377807         3.339069
 H        -3.069577         1.271230         2.613176
 H        -2.165430         0.438657         0.588056
 H         0.544554         1.479910         1.658645
 H         0.017034        -0.127103         1.453976
 H         1.451207         1.183173        -0.589542
 H        -1.204098         3.081722        -0.178626
