19
Iteration:   382
 O        -3.477813         4.788601         1.491930
 C        -2.756964         3.747099         0.839633
 C        -3.100558         2.362789         1.224899
 C        -2.443174         1.492649         0.274985
 C        -1.078696         2.148344         0.665844
 C        -0.126166         1.123273         1.237985
 C         0.322431         0.026225         0.124852
 O        -0.296376        -0.391304        -0.843605
 C        -1.733837         3.090666         1.734578
 H        -2.948534         5.233697         2.149758
 H        -2.572689         3.903278        -0.277089
 H        -4.176550         2.223546         1.462199
 H        -2.359542         0.426694         0.506354
 H        -2.713305         1.629898        -0.795598
 H        -0.560143         2.778668        -0.165390
 H         0.867133         1.566468         1.648409
 H        -0.562117         0.511825         2.028908
 H         1.392995        -0.249085         0.340965
 H        -1.325342         3.309060         2.700539
