19
Iteration:  3856charge 0 multiplicity 1
 O        -3.038482         5.100929         1.742636
 C        -2.904711         3.885932         0.983958
 C        -3.232055         2.524886         1.629375
 C        -2.937032         1.513353         0.574199
 C        -1.454512         1.837700         0.433813
 C        -0.546439         0.699423         0.862664
 C        -0.138535        -0.011219        -0.309636
 O         1.066469        -0.234113        -0.554906
 C        -1.730466         3.012072         1.317056
 H        -2.403589         5.727619         1.292336
 H        -3.098979         3.907920        -0.044956
 H        -3.573977         2.616889         2.718059
 H        -2.952761         0.546044         0.838145
 H        -3.705922         1.530977        -0.181720
 H        -1.048245         2.135910        -0.619975
 H         0.348986         1.129426         1.436444
 H        -1.013969        -0.119158         1.479139
 H        -0.978285        -0.602295        -0.676859
 H        -0.986611         3.310250         2.081134
