19
Iteration:  4210
 O        -3.569001         4.676812         1.840112
 C        -2.648731         3.906020         1.167870
 C        -3.000045         2.451771         1.004010
 C        -2.173572         1.930882        -0.162515
 C        -0.844443         2.233519         0.566418
 C        -0.173553         1.040280         1.175046
 C         0.070589         0.126907        -0.158945
 O        -0.553469        -0.836212        -0.478146
 C        -1.678547         2.870115         1.710555
 H        -3.342901         5.480875         2.379262
 H        -2.450611         4.311717         0.193951
 H        -3.876404         2.115116         1.585725
 H        -2.252706         0.854285        -0.533716
 H        -2.248251         2.447489        -1.168804
 H        -0.080403         2.959762         0.151505
 H         0.783813         1.436490         1.631992
 H        -0.795722         0.286304         1.733631
 H         0.705211         0.614234        -0.921984
 H        -1.456333         2.890703         2.756497
