19
Iteration:  4684charge 0 multiplicity 1
 O        -2.904766         4.928548         2.194439
 C        -2.264667         4.013108         1.239982
 C        -3.186906         3.121826         0.499019
 C        -2.431981         2.307523        -0.511491
 C        -1.448196         1.835384         0.533203
 C        -1.091043         0.374021         1.052342
 C        -0.004090        -0.434832         0.404569
 O         0.796726        -0.249693        -0.556619
 C        -2.353458         2.492404         1.641394
 H        -2.321807         4.870205         2.957959
 H        -1.420908         4.556664         0.640335
 H        -4.278645         3.291238         0.358574
 H        -3.092015         1.388471        -0.802734
 H        -2.043847         2.811853        -1.453115
 H        -0.543462         2.366824         0.473215
 H        -0.872057         0.411896         2.108783
 H        -1.929881        -0.387342         0.954853
 H        -0.055115        -1.403638         0.833610
 H        -2.643568         2.314303         2.641665
