19
Iteration:  3878
 O        -2.968953         5.084778         1.638223
 C        -2.834901         3.915968         0.936410
 C        -3.210177         2.607310         1.613992
 C        -3.052113         1.404611         0.568888
 C        -1.510588         1.837547         0.533686
 C        -0.584193         0.654810         0.965989
 C        -0.062868        -0.102378        -0.289240
 O         1.080448        -0.085084        -0.701986
 C        -1.745529         2.938648         1.493909
 H        -2.223285         5.665124         1.469654
 H        -3.014967         3.814264        -0.082128
 H        -4.005011         2.769283         2.484638
 H        -3.286870         0.517945         0.981615
 H        -3.562619         1.278944        -0.385186
 H        -1.288892         2.049187        -0.553756
 H         0.370162         1.181134         1.391897
 H        -1.051117         0.165406         1.865237
 H        -0.922743        -0.406169        -0.963195
 H        -1.078857         3.489586         2.146434
