19
Iteration:  4278charge 0 multiplicity 1
 O        -3.627414         4.553469         2.110376
 C        -2.624646         4.021685         1.250961
 C        -3.047815         2.695949         0.740055
 C        -2.116314         2.113355        -0.405246
 C        -0.809841         2.353332         0.587481
 C        -0.075661         1.006701         0.914106
 C        -0.015089         0.034704        -0.223558
 O        -0.417469        -1.133841        -0.121749
 C        -1.856867         2.867204         1.678728
 H        -3.195514         5.146407         2.722219
 H        -2.369443         4.788980         0.535897
 H        -4.061234         2.391369         0.940502
 H        -2.330951         0.940270        -0.528805
 H        -2.181212         2.444739        -1.473070
 H        -0.050330         3.104807         0.194478
 H         1.038213         1.252067         1.064033
 H        -0.410040         0.637798         1.939299
 H         0.341518         0.451271        -1.181976
 H        -1.859936         2.565061         2.703420
