19
Iteration:   714
 O        -3.077964         5.025009         1.574670
 C        -2.897848         3.867584         0.877578
 C        -3.309782         2.527025         1.515971
 C        -2.933346         1.199589         0.792725
 C        -1.512027         1.841797         0.541463
 C        -0.368413         0.976427         0.948709
 C        -0.044513         0.102113        -0.313176
 O         1.108350        -0.256894        -0.584037
 C        -1.833941         3.042735         1.394586
 H        -2.691710         5.751276         1.092513
 H        -3.115813         3.931031        -0.254857
 H        -3.983578         2.452163         2.342125
 H        -2.933943         0.296133         1.462036
 H        -3.452764         0.954962        -0.135221
 H        -1.432807         2.158013        -0.502429
 H         0.584978         1.540278         1.130227
 H        -0.649362         0.342517         1.798204
 H        -0.961568        -0.187810        -0.914157
 H        -1.337723         3.378242         2.257134
