19
Iteration:   552charge 0 multiplicity 1
 O        -3.274125         5.004927         1.687094
 C        -2.806514         3.910730         0.899614
 C        -3.207288         2.501113         1.467857
 C        -2.869632         1.307304         0.493830
 C        -1.445610         1.912290         0.332874
 C        -0.363602         0.980240         1.008718
 C         0.107428        -0.203734         0.198069
 O         0.776768        -0.091111        -0.805372
 C        -1.748570         3.026257         1.358151
 H        -2.623647         5.760166         1.638564
 H        -2.896080         4.090365        -0.125457
 H        -3.809517         2.426105         2.350386
 H        -2.795254         0.449054         1.182359
 H        -3.253905         0.864888        -0.488264
 H        -1.202843         2.089755        -0.685519
 H         0.520836         1.572724         1.319330
 H        -0.860744         0.489714         1.892434
 H        -0.232402        -1.221501         0.614939
 H        -1.189149         3.249276         2.290590
