19
Iteration:  2040
 O        -3.821991         4.689334         0.997148
 C        -3.327311         3.354084         1.081020
 C        -2.473072         3.080029         2.299955
 C        -2.102376         1.525409         2.310640
 C        -1.738820         1.468286         0.761240
 C        -0.402144         0.977487         0.453649
 C        -0.011106         0.345767        -0.849522
 O         1.092595        -0.136461        -0.995316
 C        -1.910828         3.140824         0.827405
 H        -3.794253         4.969119         0.034307
 H        -4.112759         2.586051         0.747697
 H        -2.439257         3.845617         3.118011
 H        -1.396708         1.238575         3.036719
 H        -3.034565         0.820986         2.596568
 H        -2.406391         0.944093         0.127220
 H         0.346085         1.656088         0.846573
 H        -0.147889         0.081624         1.196968
 H        -0.876874         0.147430        -1.477742
 H        -1.183523         3.756527         0.321004
