19
Iteration:  3482charge 0 multiplicity 1
 O        -3.496232         4.785510         1.523163
 C        -3.151832         3.559351         0.963496
 C        -2.615897         2.542671         1.985574
 C        -2.412219         1.222439         1.319550
 C        -1.350068         1.898246         0.417208
 C         0.121542         1.368415         0.646134
 C         0.268976        -0.059172        -0.044809
 O        -0.368265        -0.265905        -1.059209
 C        -1.638904         3.311038         1.026443
 H        -3.020360         5.396151         0.990900
 H        -3.672750         3.197143         0.098503
 H        -2.751821         2.779061         3.047039
 H        -1.923285         0.439758         1.973248
 H        -3.143348         0.705350         0.783619
 H        -1.550889         1.913399        -0.647878
 H         0.784719         2.084110         0.132387
 H         0.390857         1.358626         1.729829
 H         0.802611        -0.839693         0.471005
 H        -1.091427         4.122957         1.434817
