19
Iteration:  4844
 O        -3.362317         4.906744         1.892296
 C        -2.431723         3.955111         1.347323
 C        -2.764618         2.968053         0.324326
 C        -1.441822         2.429443        -0.308312
 C        -1.103839         1.889328         1.134400
 C        -0.830059         0.416598         1.290284
 C        -0.182045        -0.412792         0.215631
 O        -0.183741        -0.272262        -1.000196
 C        -2.401292         2.509964         1.708167
 H        -2.965264         4.960606         2.795722
 H        -1.549304         4.461958         1.149941
 H        -3.803442         3.067654        -0.084874
 H        -1.660566         1.560671        -0.977151
 H        -0.682614         3.115414        -0.681450
 H        -0.262908         2.440607         1.501147
 H        -0.353670         0.169524         2.278110
 H        -1.764668        -0.116667         1.330182
 H         0.270760        -1.442689         0.584424
 H        -2.966432         2.156374         2.492139
