19
Iteration:  3221
 O        -3.118263         4.752064         0.766465
 C        -3.128852         3.363745         0.933820
 C        -2.271758         2.954438         2.124282
 C        -2.413924         1.451555         2.421181
 C        -1.904161         1.162484         0.897872
 C        -0.610056         0.404041         0.933038
 C         0.352501         0.431773        -0.391339
 O         0.130564         1.046570        -1.443580
 C        -1.807001         2.683583         0.714227
 H        -2.769664         5.006622        -0.133280
 H        -4.119352         2.801973         0.769136
 H        -1.795809         3.785184         2.744602
 H        -1.822723         1.100397         3.336872
 H        -3.481932         1.070585         2.702966
 H        -2.675516         0.559175         0.295179
 H         0.069521         0.716854         1.742108
 H        -0.683374        -0.672395         1.116611
 H         1.251641        -0.119090        -0.139815
 H        -1.092361         3.184739        -0.031385
