19
Iteration:  1794
 O        -3.262525         4.436609         0.364499
 C        -2.969669         3.180781         0.801290
 C        -2.210921         3.010131         2.086963
 C        -2.267576         1.604430         2.615856
 C        -1.818827         1.099480         1.159743
 C        -0.623335         0.321335         0.990311
 C         0.216433         0.703225        -0.330658
 O        -0.143587         1.395761        -1.264644
 C        -1.671201         2.553584         0.661040
 H        -2.719075         4.447334        -0.462556
 H        -3.829375         2.495715         0.509958
 H        -1.892731         3.965408         2.412452
 H        -1.266206         1.424148         3.235383
 H        -3.101985         0.989220         2.881553
 H        -2.655727         0.578731         0.629994
 H         0.152931         0.448641         1.713435
 H        -0.731653        -0.769940         1.016469
 H         1.221983         0.113804        -0.310134
 H        -0.877217         2.951090         0.128606
