19
Iteration:   449charge 0 multiplicity 1
 O        -3.356062         4.733157         1.753938
 C        -2.774589         3.870599         0.756544
 C        -3.120263         2.474496         1.358732
 C        -2.670608         1.454042         0.275574
 C        -1.190171         1.956049         0.500058
 C        -0.189334         1.086210         1.200140
 C         0.160256        -0.062507         0.349293
 O         0.188936        -0.180332        -0.883265
 C        -1.742506         2.993732         1.399448
 H        -3.382736         5.612500         1.334369
 H        -3.057219         4.128588        -0.290212
 H        -3.888681         2.375698         2.080195
 H        -2.760902         0.393586         0.686913
 H        -3.230831         1.630479        -0.672928
 H        -0.715604         2.253401        -0.508340
 H         0.642508         1.850512         1.290453
 H        -0.413357         0.784439         2.184761
 H         0.638196        -0.884968         0.917882
 H        -1.153799         3.323786         2.180328
