19
Iteration:  1041charge 0 multiplicity 1
 O        -3.612327         4.775609         1.819130
 C        -3.111028         3.751075         0.987328
 C        -2.685709         2.453535         1.773369
 C        -2.644524         1.260320         0.788071
 C        -1.418488         2.101866         0.090523
 C        -0.046396         1.397789         0.479770
 C         0.513264         0.290023        -0.317265
 O         0.078979        -0.856482        -0.113200
 C        -1.695822         3.246703         1.120014
 H        -3.633600         5.657480         1.422269
 H        -3.685354         3.484983         0.124920
 H        -2.935985         2.397185         2.761813
 H        -2.241349         0.179659         1.200161
 H        -3.578912         0.965809         0.170820
 H        -1.686735         2.307477        -1.009807
 H         0.674824         2.248709         0.352005
 H        -0.112592         1.299155         1.560268
 H         1.226829         0.469159        -1.077905
 H        -0.761701         3.834203         1.379270
