19
Iteration:  1522
 O        -3.531242         4.778950         1.151827
 C        -3.105823         3.447874         0.854523
 C        -2.667218         2.666173         2.092076
 C        -2.392628         1.164506         1.732069
 C        -1.532957         1.704453         0.580878
 C         0.049822         1.373248         0.729136
 C         0.499855         0.404024        -0.354770
 O        -0.263632        -0.368166        -0.929425
 C        -1.690035         3.138359         1.061744
 H        -3.456258         5.279995         0.317040
 H        -3.722698         3.089345        -0.041914
 H        -2.972719         3.153831         2.994589
 H        -1.842702         0.606040         2.615606
 H        -3.158521         0.547384         1.189374
 H        -1.825516         1.715487        -0.539397
 H         0.598236         2.366558         0.514058
 H         0.206266         1.036626         1.733314
 H         1.541590         0.484728        -0.654870
 H        -0.926646         3.941082         1.167280
