19
Iteration:  3715
 O        -3.477247         4.753641         2.000751
 C        -2.952925         3.838271         1.102550
 C        -2.934745         2.436766         1.624230
 C        -2.623786         1.492644         0.442468
 C        -1.318997         2.265342         0.082154
 C        -0.086067         1.344366         0.303477
 C        -0.229409        -0.016785        -0.345734
 O         0.511832        -0.925973         0.015454
 C        -1.560714         3.243194         1.340493
 H        -3.055384         5.654692         1.911308
 H        -3.350384         4.012683         0.096499
 H        -3.618800         2.268941         2.469413
 H        -2.439748         0.495095         0.742823
 H        -3.550678         1.387657        -0.180194
 H        -1.310233         2.626089        -0.879972
 H         0.771760         1.900207        -0.030344
 H         0.024898         1.139462         1.326019
 H        -1.054570        -0.042733        -1.188967
 H        -0.803012         3.632256         2.126942
