19
Iteration:   225charge 0 multiplicity 1
 O        -3.433651         4.805079         1.823707
 C        -2.904875         3.911320         0.879400
 C        -3.073845         2.471112         1.205026
 C        -2.554546         1.736655        -0.034234
 C        -1.064679         2.249759         0.431503
 C        -0.371982         1.035171         1.126941
 C         0.415779        -0.005754         0.261250
 O         0.032516        -0.795610        -0.609942
 C        -1.730589         3.105999         1.468126
 H        -3.213470         4.386859         2.690713
 H        -3.153032         4.259366        -0.200235
 H        -3.538353         2.022770         2.031117
 H        -2.483340         0.687856         0.188839
 H        -2.975455         1.808541        -0.980947
 H        -0.553621         2.840896        -0.409141
 H         0.384764         1.365576         1.897523
 H        -1.184082         0.526487         1.659535
 H         1.456702        -0.050569         0.541806
 H        -1.237413         3.526864         2.317393
