19
Iteration:  4097charge 0 multiplicity 1
 O        -3.134045         4.933630         1.859631
 C        -2.677942         3.948768         1.049978
 C        -3.248828         2.566431         1.214039
 C        -2.713169         1.605794         0.074243
 C        -1.320094         1.998677         0.478585
 C        -0.441955         0.863620         1.088351
 C         0.276806        -0.072196         0.224109
 O         0.175504        -0.340543        -0.926930
 C        -1.748675         2.847144         1.576346
 H        -2.327014         5.436991         2.150890
 H        -2.423076         4.235103         0.035757
 H        -4.147988         2.567320         1.770247
 H        -2.998310         0.599871         0.232752
 H        -2.870721         1.829860        -0.986998
 H        -0.765649         2.511789        -0.322910
 H         0.255982         1.430266         1.679300
 H        -0.955092         0.189929         1.788710
 H         1.054892        -0.639110         0.856051
 H        -1.325770         2.838320         2.613415
