19
Iteration:  1156charge 0 multiplicity 1
 O        -3.707446         4.702246         1.425181
 C        -3.086935         3.528955         0.888871
 C        -2.874614         2.343477         1.867522
 C        -2.310126         1.229499         1.090998
 C        -1.204907         2.089540         0.454095
 C         0.283015         1.485141         0.482131
 C         0.314607         0.354554        -0.470489
 O        -0.372397        -0.667966        -0.327699
 C        -1.649870         3.272962         1.421322
 H        -3.329086         5.460500         0.938698
 H        -3.504837         3.567339        -0.132896
 H        -3.472209         2.580167         2.755017
 H        -1.870815         0.509490         1.675483
 H        -2.919192         0.727108         0.391184
 H        -1.206190         2.427882        -0.553910
 H         0.935224         2.229972         0.044780
 H         0.738107         1.267357         1.450846
 H         1.120259         0.341125        -1.367651
 H        -1.222622         4.254649         1.656876
