19
Iteration:  4508
 O        -3.088128         5.049754         2.041059
 C        -2.302719         4.082326         1.373508
 C        -3.158293         3.141191         0.518772
 C        -2.517524         2.012124        -0.329563
 C        -1.404505         1.839202         0.676819
 C        -0.760746         0.539074         1.019534
 C        -0.201846        -0.160399        -0.177023
 O         0.916496        -0.700254        -0.296015
 C        -2.309131         2.599165         1.649505
 H        -2.799090         5.173237         2.953446
 H        -1.325173         4.428306         0.970913
 H        -4.206850         3.338472         0.714092
 H        -3.143775         0.977413        -0.227206
 H        -2.104226         2.164171        -1.381584
 H        -0.566345         2.531325         0.569099
 H        -0.049640         0.561922         1.818069
 H        -1.732306         0.064160         1.457481
 H        -1.005915        -0.147696        -0.985969
 H        -2.754955         2.266922         2.641728
