19
Iteration:  4567
 O        -2.979530         5.011156         2.117683
 C        -2.388708         4.026895         1.145997
 C        -3.174902         2.845836         0.655269
 C        -2.419010         2.114823        -0.445752
 C        -1.277133         1.850087         0.646702
 C        -1.156075         0.366822         0.973099
 C        -0.343749        -0.323308        -0.059636
 O         0.875983        -0.228579        -0.197572
 C        -2.053351         2.649717         1.690536
 H        -2.174350         5.300855         2.544531
 H        -1.637987         4.417060         0.530264
 H        -4.284947         2.820337         0.792230
 H        -2.688712         1.162628        -0.815996
 H        -2.164814         2.706550        -1.302763
 H        -0.230740         2.385014         0.582555
 H        -0.542186         0.300721         1.930194
 H        -2.149155        -0.044991         1.161022
 H        -0.853821        -0.834873        -0.926009
 H        -2.157628         2.488499         2.748629
