19
Iteration:  4762
 O        -3.133815         4.872437         1.939338
 C        -2.182003         4.071782         1.250123
 C        -2.922591         3.065288         0.444412
 C        -2.073986         2.149747        -0.372955
 C        -1.320381         1.681075         0.913365
 C        -1.263552         0.208800         1.047244
 C         0.047313        -0.219848         0.411129
 O         0.286552        -0.014370        -0.803652
 C        -2.227791         2.543164         1.756955
 H        -2.603929         5.061714         2.698306
 H        -1.253417         4.742353         1.002054
 H        -3.950802         3.273545         0.125650
 H        -2.778966         1.303648        -0.638374
 H        -1.390992         2.401905        -1.237756
 H        -0.325034         1.965703         1.062837
 H        -1.179384        -0.070621         2.080702
 H        -2.222651        -0.232408         0.672122
 H         0.868604        -0.719499         1.129420
 H        -2.608725         2.144941         2.743321
