19
Iteration:  1019charge 0 multiplicity 1
 O        -3.531107         4.691710         1.854070
 C        -3.068811         3.683693         1.009172
 C        -2.890461         2.446157         1.769589
 C        -2.684107         1.377579         0.793514
 C        -1.420034         2.007278         0.100335
 C        -0.044930         1.487469         0.443659
 C         0.369916         0.320553        -0.351776
 O         0.211189        -0.876707        -0.023263
 C        -1.671985         3.267172         0.984215
 H        -3.140476         5.569731         1.644621
 H        -3.379854         3.830015         0.004446
 H        -2.977999         2.373247         2.802706
 H        -2.529870         0.283264         1.244505
 H        -3.473472         1.209490        -0.005934
 H        -1.610921         2.303618        -1.000483
 H         0.641202         2.354772         0.333072
 H        -0.004562         1.191997         1.504773
 H         1.066930         0.511960        -1.150979
 H        -0.879892         3.812890         1.587530
