19
Iteration:  4279charge 0 multiplicity 1
 O        -3.631412         4.556638         2.115991
 C        -2.617033         4.026872         1.253645
 C        -3.042209         2.692637         0.736461
 C        -2.118785         2.115809        -0.414268
 C        -0.812031         2.346752         0.583126
 C        -0.076995         1.007539         0.920658
 C        -0.014638         0.033960        -0.228281
 O        -0.413789        -1.135285        -0.114979
 C        -1.859558         2.866148         1.667103
 H        -3.208839         5.156536         2.755385
 H        -2.331153         4.822485         0.554787
 H        -4.058790         2.363034         0.980217
 H        -2.343051         0.965772        -0.552268
 H        -2.185085         2.433942        -1.482114
 H        -0.104077         3.100671         0.208896
 H         1.029227         1.297109         1.064973
 H        -0.423845         0.624495         1.925935
 H         0.343535         0.441430        -1.178324
 H        -1.851180         2.528190         2.728916
