19
Iteration:   885charge 0 multiplicity 1
 O        -3.513834         4.814454         1.955961
 C        -3.205841         3.840467         0.986072
 C        -3.034979         2.513087         1.622119
 C        -2.697347         1.502029         0.546624
 C        -1.331899         2.235450         0.141912
 C        -0.031408         1.378009         0.286217
 C        -0.095621        -0.167014        -0.208179
 O         0.910145        -0.866425        -0.074129
 C        -1.730604         3.147470         1.317021
 H        -3.313565         5.672276         1.494248
 H        -3.565831         4.036915         0.014342
 H        -3.578771         2.298376         2.565798
 H        -2.423854         0.478247         1.008391
 H        -3.415993         1.349021        -0.326920
 H        -1.479742         2.886914        -0.766680
 H         0.832329         1.925586         0.016801
 H         0.016982         1.109943         1.322576
 H        -1.099226        -0.586866        -0.297140
 H        -1.082935         3.832040         1.801214
