19
Iteration:  4117charge 0 multiplicity 1
 O        -3.179430         4.796896         1.927039
 C        -2.595784         3.944005         0.987712
 C        -3.250932         2.571750         1.125716
 C        -2.778639         1.697722         0.027023
 C        -1.160544         2.076516         0.435500
 C        -0.315564         0.943312         1.090032
 C         0.405766        -0.095168         0.219421
 O        -0.027406        -0.426841        -0.829651
 C        -1.853509         2.849585         1.625082
 H        -2.463737         5.378645         2.173185
 H        -2.209564         4.385497        -0.003904
 H        -4.086464         2.406958         1.748317
 H        -3.054669         0.601898         0.127236
 H        -3.264300         1.941098        -0.872205
 H        -0.482985         2.706954        -0.328078
 H         0.320663         1.448336         1.809384
 H        -1.076339         0.388718         1.610109
 H         1.371965        -0.511352         0.636091
 H        -1.484610         3.059306         2.628559
