19
Iteration:   823charge 0 multiplicity 1
 O        -3.338560         4.825828         1.847255
 C        -3.084283         3.786975         0.980763
 C        -3.035641         2.517059         1.639313
 C        -2.807515         1.397035         0.595223
 C        -1.536168         2.112795         0.127204
 C        -0.293655         1.209160         0.736997
 C        -0.064434        -0.050486        -0.188362
 O         1.004217        -0.583877        -0.259634
 C        -1.709706         3.193196         1.073751
 H        -2.550236         5.421512         1.942375
 H        -3.457260         3.907881        -0.101502
 H        -3.370586         2.443532         2.727304
 H        -2.405237         0.501553         1.084961
 H        -3.580305         1.113240        -0.055744
 H        -1.350377         2.367957        -0.881836
 H         0.641450         1.848311         0.925641
 H        -0.674307         0.958512         1.789890
 H        -0.862857        -0.395543        -0.920886
 H        -0.965788         3.551325         1.738214
