19
Iteration:  4476charge 0 multiplicity 1
 O        -3.066658         4.997999         2.033743
 C        -2.401619         3.990345         1.207507
 C        -3.309314         2.959965         0.585652
 C        -2.375739         2.160159        -0.374343
 C        -1.356344         1.920731         0.795583
 C        -0.661702         0.619133         0.945165
 C        -0.155412        -0.047842        -0.240321
 O         0.738817        -0.864078        -0.205669
 C        -2.277501         2.614881         1.777963
 H        -2.518696         5.264827         2.826572
 H        -1.632783         4.458116         0.666493
 H        -4.347585         3.078725         0.824591
 H        -2.873801         1.217415        -0.711149
 H        -2.065692         2.783866        -1.178787
 H        -0.501541         2.627530         0.574832
 H         0.071262         0.681687         1.715642
 H        -1.550287         0.015246         1.251808
 H        -0.692754         0.178398        -1.226643
 H        -2.492609         2.511955         2.878000
