19
Iteration:   796
 O        -3.395153         4.986406         1.815522
 C        -3.146512         3.849047         0.997626
 C        -3.023137         2.569801         1.699720
 C        -2.940917         1.485378         0.645475
 C        -1.510680         1.952325         0.258693
 C        -0.266890         0.974361         0.609980
 C         0.033342        -0.146135        -0.232996
 O         1.182438        -0.547335        -0.327995
 C        -1.744354         3.229580         1.176654
 H        -2.844093         5.745238         1.495567
 H        -3.453997         3.936275         0.001643
 H        -3.398158         2.494987         2.687509
 H        -3.013347         0.434819         0.971371
 H        -3.602813         1.652281        -0.285476
 H        -1.444678         2.253118        -0.869624
 H         0.576629         1.543665         0.871640
 H        -0.627888         0.509608         1.505690
 H        -0.766461        -0.682007        -0.802829
 H        -1.124084         3.696759         1.994562
