19
Iteration:  4145charge 0 multiplicity 1
 O        -3.343110         4.853496         2.053052
 C        -2.692986         4.051189         1.041475
 C        -3.169920         2.575815         0.966504
 C        -2.521390         1.680742        -0.092711
 C        -1.103742         1.965016         0.539028
 C        -0.238251         0.927074         1.126156
 C         0.354896         0.016619         0.140585
 O        -0.225838        -0.600321        -0.782471
 C        -1.762878         2.918870         1.596378
 H        -2.591739         5.381949         2.283528
 H        -2.538665         4.480921         0.074894
 H        -4.055993         2.141505         1.525598
 H        -2.958949         0.654222         0.126825
 H        -2.862081         1.921908        -1.167557
 H        -0.402409         2.382006        -0.087401
 H         0.465951         1.721417         1.491666
 H        -0.701309         0.282326         1.932710
 H         1.465832        -0.247317         0.305724
 H        -1.447139         3.183543         2.594184
