19
Iteration:  4556
 O        -3.007544         4.951162         2.072506
 C        -2.328619         4.071531         1.145781
 C        -3.220312         2.979464         0.608459
 C        -2.426998         2.132022        -0.389657
 C        -1.323697         1.829439         0.681517
 C        -0.989341         0.340343         1.009486
 C        -0.333756        -0.305055        -0.132627
 O         0.880849        -0.291704        -0.186371
 C        -2.121240         2.664041         1.713428
 H        -2.341156         5.255093         2.753363
 H        -1.675554         4.567102         0.484257
 H        -4.309800         3.010130         0.820049
 H        -3.104833         1.350500        -0.667027
 H        -2.122583         2.702071        -1.244746
 H        -0.273036         2.216024         0.279352
 H        -0.323764         0.203912         1.916982
 H        -1.921321        -0.236465         1.141476
 H        -1.065674        -0.892103        -0.777941
 H        -2.200969         2.324082         2.718693
