19
Iteration:  1874charge 0 multiplicity 1
 O        -3.350122         4.571544         0.565811
 C        -3.050256         3.205066         0.791115
 C        -2.347271         2.998166         2.078655
 C        -2.269714         1.553497         2.503089
 C        -1.818733         1.151487         1.073061
 C        -0.446157         0.530045         1.045037
 C         0.158152         0.314086        -0.459530
 O         0.131225         1.213846        -1.298528
 C        -1.704421         2.701735         0.695866
 H        -3.264324         4.664836        -0.404209
 H        -4.021160         2.666668         0.629229
 H        -2.060005         3.947838         2.578339
 H        -1.564675         1.418675         3.385844
 H        -3.218239         1.029569         2.879612
 H        -2.623251         0.486901         0.577169
 H         0.296903         1.245132         1.312895
 H        -0.426245        -0.260762         1.796469
 H         0.576255        -0.642566        -0.765352
 H        -0.777591         3.058620         0.172967
