19
Iteration:  4435charge 0 multiplicity 1
 O        -3.353776         4.986021         2.120745
 C        -2.572388         4.088489         1.226736
 C        -3.186528         2.830870         0.747173
 C        -2.321958         2.197981        -0.433748
 C        -1.096795         2.063203         0.640615
 C        -0.894974         0.548097         0.916196
 C        -0.059896        -0.011271        -0.188314
 O         0.583653        -1.072329        -0.195123
 C        -1.916357         2.809036         1.720269
 H        -2.654743         5.409066         2.620815
 H        -2.019172         4.653525         0.430196
 H        -4.147939         2.401452         0.951085
 H        -2.596939         1.256601        -0.789307
 H        -2.022876         2.919418        -1.235134
 H        -0.073596         2.488431         0.391677
 H        -0.356115         0.305028         1.890722
 H        -1.789635        -0.091798         0.853354
 H         0.078095         0.672479        -1.036138
 H        -1.824862         2.616876         2.809276
