19
Iteration:  1250
 O        -3.615904         4.809631         1.591691
 C        -3.194561         3.595168         0.961041
 C        -2.761842         2.503844         1.875731
 C        -2.475396         1.178705         1.114518
 C        -1.348403         1.933158         0.289879
 C         0.177812         1.503267         0.648970
 C         0.477204         0.357246        -0.297142
 O        -0.153016        -0.692568        -0.481801
 C        -1.747875         3.230598         0.998338
 H        -3.103843         5.529925         1.238944
 H        -3.723322         3.273809         0.068168
 H        -2.782728         2.381036         3.008083
 H        -2.220040         0.277273         1.718616
 H        -3.370196         0.843918         0.457206
 H        -1.765157         2.016822        -0.800764
 H         0.967671         2.246856         0.833941
 H         0.146243         1.099030         1.711081
 H         1.402143         0.385774        -1.156036
 H        -1.115630         4.022642         1.287596
