19
Iteration:   770charge 0 multiplicity 1
 O        -3.429119         5.145693         1.758541
 C        -2.956585         3.910444         1.031516
 C        -3.087220         2.590484         1.685965
 C        -3.090394         1.447371         0.676700
 C        -1.569821         1.877564         0.274147
 C        -0.373417         0.949885         0.702326
 C         0.154924        -0.144942        -0.227699
 O         1.285989        -0.543994        -0.478548
 C        -1.718816         3.018983         1.311059
 H        -3.432307         5.911249         1.120601
 H        -3.206962         4.038875        -0.082551
 H        -3.690767         2.504344         2.673536
 H        -3.065182         0.438044         1.073345
 H        -3.732036         1.473202        -0.253346
 H        -1.372381         2.287106        -0.705428
 H         0.392710         1.780853         0.688924
 H        -0.553548         0.683843         1.777337
 H        -0.637732        -0.567970        -0.859803
 H        -1.002590         3.606387         1.870453
