19
Iteration:  1833charge 0 multiplicity 1
 O        -3.190042         4.519189         0.287649
 C        -3.146844         3.216837         0.910544
 C        -2.343162         3.070956         2.094655
 C        -2.203741         1.534967         2.558381
 C        -1.702076         1.213802         1.172577
 C        -0.442133         0.229780         0.949835
 C         0.178694         0.472396        -0.446116
 O        -0.115486         1.428011        -1.109354
 C        -1.750684         2.571320         0.647480
 H        -3.290442         4.465887        -0.660170
 H        -3.965608         2.581908         0.709967
 H        -1.800382         3.813792         2.713886
 H        -1.596946         1.288562         3.314335
 H        -3.167781         1.055166         2.870487
 H        -2.520228         0.680520         0.561000
 H         0.230443         0.662229         1.731319
 H        -0.593426        -0.847480         1.078716
 H         1.126173        -0.114783        -0.808265
 H        -0.944694         3.176848         0.156888
