19
Iteration:  1104
 O        -3.660539         4.679141         1.633003
 C        -3.142255         3.597353         0.933580
 C        -2.784604         2.441270         1.797971
 C        -2.379229         1.197940         0.975159
 C        -1.287956         2.007416         0.317696
 C         0.151684         1.524333         0.597753
 C         0.383682         0.331593        -0.403414
 O        -0.273738        -0.658022        -0.234908
 C        -1.609890         3.273601         1.058796
 H        -3.241185         5.510232         1.300627
 H        -3.779502         3.464898        -0.001104
 H        -3.204459         2.439852         2.777212
 H        -2.139552         0.365063         1.767455
 H        -2.965221         0.803382         0.138108
 H        -1.388849         2.233693        -0.861065
 H         1.023966         2.298100         0.471988
 H         0.156254         1.224562         1.654052
 H         1.110565         0.413205        -1.328964
 H        -0.948880         3.994798         1.612933
