19
Iteration:   192charge 0 multiplicity 1
 O        -3.580211         4.877445         1.926075
 C        -2.934141         3.993269         0.966917
 C        -3.123015         2.560124         1.132697
 C        -2.535724         1.760430        -0.027909
 C        -1.090991         2.060094         0.320197
 C        -0.310345         0.974077         1.093776
 C         0.519310        -0.033532         0.268332
 O         0.042965        -0.784746        -0.564351
 C        -1.693264         3.038458         1.451224
 H        -2.807346         5.338517         2.374061
 H        -2.927186         4.250833        -0.151658
 H        -3.747375         2.015892         1.814990
 H        -2.702043         0.696592         0.216011
 H        -2.759982         1.992597        -1.014365
 H        -0.617444         2.461299        -0.650027
 H         0.432121         1.437887         1.825074
 H        -1.017030         0.422749         1.751968
 H         1.629215        -0.030013         0.441278
 H        -1.208722         3.270538         2.362876
