19
Iteration:   189charge 0 multiplicity 1
 O        -3.566999         4.845484         1.914432
 C        -2.912048         4.004543         0.976129
 C        -3.122905         2.598833         1.142684
 C        -2.591817         1.757249        -0.050411
 C        -1.084295         2.086361         0.343772
 C        -0.280240         0.963644         1.098974
 C         0.528884        -0.022402         0.279445
 O         0.033530        -0.774639        -0.558497
 C        -1.703191         2.998743         1.432822
 H        -2.839449         5.389434         2.268693
 H        -2.957801         4.209107        -0.109664
 H        -3.741878         1.965208         1.854903
 H        -2.853893         0.682665         0.227420
 H        -2.758519         1.954471        -1.089988
 H        -0.476508         2.472522        -0.565044
 H         0.411790         1.427259         1.723847
 H        -0.964310         0.439385         1.734788
 H         1.595098         0.015835         0.422842
 H        -1.230739         3.242155         2.377655
