19
Iteration:  2420
 O        -3.699946         4.343787         0.554796
 C        -3.328708         3.075737         1.101551
 C        -2.186826         3.129244         1.971726
 C        -2.058626         1.760641         2.643380
 C        -1.773174         1.156687         1.216448
 C        -0.240019         0.728996         0.963766
 C         0.369633         0.483425        -0.441030
 O         0.327127         1.064829        -1.513822
 C        -2.101646         2.547549         0.480557
 H        -3.856832         4.264299        -0.438147
 H        -4.123777         2.353409         1.339339
 H        -1.816498         4.029010         2.290801
 H        -1.111738         1.767009         3.285830
 H        -2.824281         1.411593         3.275383
 H        -2.553919         0.387652         1.053459
 H         0.428726         1.635433         1.334866
 H        -0.060599        -0.019394         1.780709
 H         1.102253        -0.430172        -0.302562
 H        -1.717470         3.094318        -0.356164
