19
Iteration:  1034charge 0 multiplicity 1
 O        -3.609038         4.748956         1.851545
 C        -3.093509         3.734435         0.981030
 C        -2.717085         2.500293         1.743365
 C        -2.676236         1.242156         0.753769
 C        -1.482445         2.075863         0.110012
 C        -0.067740         1.483155         0.462222
 C         0.524099         0.258358        -0.318881
 O         0.115287        -0.853659        -0.084717
 C        -1.606589         3.234257         1.109577
 H        -3.405640         5.607470         1.396472
 H        -3.784593         3.408440         0.176191
 H        -3.169992         2.495936         2.772518
 H        -2.330356         0.360688         1.133049
 H        -3.622914         1.112130         0.283723
 H        -1.527281         2.168937        -0.995736
 H         0.645821         2.275196         0.416667
 H        -0.201057         1.217545         1.552470
 H         1.137749         0.469883        -1.293507
 H        -0.737827         3.781673         1.437112
