19
Iteration:   285charge 0 multiplicity 1
 O        -3.328425         4.797896         1.852901
 C        -2.739496         3.887889         0.890671
 C        -3.286570         2.452533         0.970989
 C        -2.457456         1.495161         0.064035
 C        -1.080053         2.074427         0.515723
 C        -0.064338         1.087397         1.150610
 C         0.439599         0.152523         0.192360
 O        -0.287755        -0.514511        -0.533324
 C        -1.794952         2.945509         1.521488
 H        -4.231476         4.941128         1.568062
 H        -2.708204         4.401712        -0.043249
 H        -4.210619         2.342977         1.597903
 H        -2.599983         0.418136         0.391244
 H        -2.624979         1.689988        -1.078231
 H        -0.580553         2.612472        -0.266800
 H         0.851031         1.615285         1.633995
 H        -0.707832         0.621399         1.973918
 H         1.533473         0.098682         0.139507
 H        -1.397024         3.156441         2.523629
