19
Iteration:  3054charge 0 multiplicity 1
 O        -3.223815         4.699731         0.731575
 C        -3.219429         3.302120         1.004381
 C        -2.208178         2.982219         2.073556
 C        -2.440835         1.578244         2.476737
 C        -1.993530         1.082124         0.997284
 C        -0.431130         0.520372         0.852023
 C        -0.164167         0.578361        -0.607938
 O         0.840944         0.897758        -1.215801
 C        -1.879631         2.609954         0.658676
 H        -3.673589         4.843208        -0.174652
 H        -4.209327         2.796550         0.771615
 H        -1.757999         3.777185         2.730186
 H        -1.770315         1.123860         3.233285
 H        -3.379940         1.360841         2.993013
 H        -2.785745         0.480391         0.512597
 H         0.252774         1.086428         1.471927
 H        -0.544872        -0.517128         1.326826
 H        -1.005545         0.246103        -1.266740
 H        -1.248339         3.025088        -0.131482
