19
Iteration:  3159charge 0 multiplicity 1
 O        -3.218514         4.648991         0.576257
 C        -3.008951         3.315523         0.921845
 C        -2.155713         3.026611         2.088751
 C        -2.287552         1.601120         2.402147
 C        -1.867892         1.051918         1.038713
 C        -0.645833         0.111274         0.768324
 C         0.004975         0.343655        -0.532577
 O         0.175397         1.466732        -0.970214
 C        -1.658560         2.650963         0.678598
 H        -3.463194         4.683723        -0.385674
 H        -3.923205         2.754380         0.808406
 H        -1.885449         3.823270         2.840143
 H        -1.590395         1.467059         3.180241
 H        -3.273757         1.280647         2.624088
 H        -2.735420         0.630858         0.561322
 H         0.151719         0.214731         1.600548
 H        -1.221977        -0.903372         0.847098
 H         0.582252        -0.415955        -1.076436
 H        -0.831460         3.042653         0.093511
