19
Iteration:  2774charge 0 multiplicity 1
 O        -3.879331         4.537058         0.929964
 C        -3.262827         3.250760         1.048890
 C        -2.340583         2.995489         2.116159
 C        -2.250078         1.564127         2.297348
 C        -1.544015         1.503057         0.833881
 C        -0.101838         1.017021         0.844742
 C         0.373323         0.831547        -0.606201
 O         0.296028        -0.232489        -1.203874
 C        -1.815849         2.968817         0.676974
 H        -4.128194         4.777373         0.005816
 H        -3.987924         2.380821         0.843581
 H        -2.153649         3.744172         2.969817
 H        -1.668050         1.259397         3.358821
 H        -3.234423         1.091906         2.232297
 H        -2.236690         0.836243         0.285742
 H         0.485628         1.681210         1.375858
 H        -0.012360        -0.168032         1.167098
 H         0.698731         1.774345        -1.164398
 H        -1.454415         3.762970        -0.051757
