19
Iteration:  3297charge 0 multiplicity 1
 O        -3.150573         4.852134         1.013890
 C        -3.053310         3.400965         0.928130
 C        -2.450007         2.788777         2.182457
 C        -2.541656         1.278486         2.001256
 C        -1.703866         1.333596         0.730933
 C        -0.314417         0.855108         0.961682
 C         0.438844         0.620237        -0.349311
 O        -0.198285         0.282980        -1.376226
 C        -1.696912         2.871634         0.835978
 H        -3.390495         5.248510         0.199476
 H        -3.890481         2.993442         0.358080
 H        -2.318202         3.281927         3.137247
 H        -2.016737         0.715738         2.871013
 H        -3.684308         1.030691         1.901673
 H        -2.133484         0.888221        -0.254674
 H         0.266524         1.470519         1.643223
 H        -0.348883        -0.120713         1.526624
 H         1.568358         0.610491        -0.193174
 H        -0.943410         3.539783         0.291691
