19
Iteration:  3621charge 0 multiplicity 1
 O        -3.282268         4.667461         1.974415
 C        -3.042216         3.662911         1.042859
 C        -2.863650         2.330484         1.663332
 C        -2.541901         1.263173         0.677897
 C        -1.334164         2.156275         0.009689
 C        -0.004814         1.582010         0.457315
 C         0.311439         0.290178        -0.281084
 O        -0.340131        -0.745279        -0.052852
 C        -1.631740         3.216305         1.092522
 H        -2.865927         5.493212         1.640595
 H        -3.587593         3.778594         0.081257
 H        -2.929798         2.069478         2.743160
 H        -1.972083         0.300432         0.997999
 H        -3.352733         0.873795         0.081938
 H        -1.236916         2.521428        -1.110264
 H         0.854248         2.288369         0.340187
 H        -0.100526         1.242970         1.596846
 H         1.027002         0.271525        -1.255378
 H        -0.938131         3.955223         1.434224
