19
Iteration:  4942
 O        -3.666879         4.393446         2.018933
 C        -2.429823         4.076618         1.275300
 C        -2.640596         3.022798         0.227340
 C        -1.149968         2.661334        -0.369912
 C        -0.755084         2.080026         1.024429
 C        -0.748045         0.624848         1.402045
 C        -0.662791        -0.499639         0.266824
 O        -0.406753        -0.429469        -0.913821
 C        -2.085527         2.581305         1.573233
 H        -3.543757         4.270163         3.007468
 H        -1.691772         4.809899         1.386366
 H        -3.599427         2.990487        -0.333364
 H        -1.307611         2.107938        -1.309646
 H        -0.564730         3.532024        -0.428148
 H         0.073027         2.586308         1.414714
 H         0.173238         0.447664         2.021515
 H        -1.530545         0.373000         2.055639
 H        -0.793829        -1.599532         0.676731
 H        -2.723723         2.066062         2.240173
