19
Iteration:  3055
 O        -3.221320         4.691151         0.724689
 C        -3.212864         3.307952         1.003859
 C        -2.210269         2.985472         2.084255
 C        -2.436184         1.578292         2.484621
 C        -1.997200         1.084250         1.002157
 C        -0.424960         0.514746         0.848426
 C        -0.165103         0.571984        -0.609674
 O         0.835040         0.910006        -1.214210
 C        -1.882220         2.604742         0.649605
 H        -3.645501         4.884855        -0.184354
 H        -4.211466         2.798598         0.792884
 H        -1.791154         3.768237         2.709044
 H        -1.790638         1.141287         3.170136
 H        -3.393007         1.361828         2.988248
 H        -2.746838         0.473041         0.498831
 H         0.275218         1.093602         1.510837
 H        -0.588118        -0.561055         1.345006
 H        -1.011897         0.260512        -1.286518
 H        -1.261902         3.014348        -0.095123
