19
Iteration:  1673charge 0 multiplicity 1
 O        -3.496048         4.782821         0.886578
 C        -3.246961         3.379174         0.980069
 C        -2.403475         2.918209         2.118869
 C        -2.386758         1.378221         2.172612
 C        -1.644550         1.428045         0.759519
 C        -0.200574         0.909615         0.955517
 C         0.483772         0.303118        -0.258009
 O         0.012171         0.340543        -1.399871
 C        -1.831980         2.860829         0.690186
 H        -3.201325         5.093790         0.028482
 H        -4.100321         2.771714         0.543868
 H        -2.129821         3.589993         2.969983
 H        -1.717205         1.201751         3.117920
 H        -3.379416         0.976129         2.312394
 H        -2.143618         0.689069        -0.025381
 H         0.506814         1.716307         1.294822
 H        -0.036961         0.196514         1.858219
 H         1.402635        -0.336528        -0.089026
 H        -1.030656         3.607883         0.345125
