19
Iteration:  4125
 O        -3.202284         4.777542         1.943427
 C        -2.648901         3.973756         1.020306
 C        -3.259336         2.591822         1.115334
 C        -2.712037         1.668667         0.009397
 C        -1.169269         2.101340         0.440688
 C        -0.268062         0.924931         1.101263
 C         0.426029        -0.075763         0.245339
 O        -0.100418        -0.475696        -0.829657
 C        -1.818278         2.871651         1.566814
 H        -2.537278         5.422501         2.234489
 H        -2.164918         4.448145         0.116210
 H        -4.186077         2.582872         1.726829
 H        -3.036312         0.532497         0.063307
 H        -2.870926         2.121418        -0.986709
 H        -0.650046         2.709273        -0.357459
 H         0.421454         1.445300         1.839438
 H        -0.970962         0.307599         1.737267
 H         1.438804        -0.404586         0.470305
 H        -1.535955         2.905308         2.560161
