19
Iteration:  3478
 O        -3.481488         4.772905         1.496280
 C        -3.145824         3.563211         0.956883
 C        -2.599102         2.536407         1.987421
 C        -2.401386         1.226197         1.347892
 C        -1.327898         1.878231         0.395023
 C         0.108269         1.338048         0.643825
 C         0.239241        -0.017899        -0.040411
 O        -0.354902        -0.231800        -1.053224
 C        -1.681223         3.292903         1.060470
 H        -2.982667         5.479050         0.976355
 H        -3.752370         3.283158         0.058993
 H        -2.676915         2.753295         3.026808
 H        -1.896850         0.487369         2.005684
 H        -3.230156         0.642190         0.849768
 H        -1.676118         1.845223        -0.627400
 H         0.820209         2.055973         0.203688
 H         0.289952         1.222412         1.675552
 H         0.840602        -0.852276         0.394427
 H        -1.005793         4.207700         1.334409
