19
Iteration:  4939
 O        -3.676252         4.394008         2.033006
 C        -2.440540         4.059107         1.281271
 C        -2.605622         3.051382         0.210891
 C        -1.167740         2.623966        -0.381617
 C        -0.784504         2.077245         1.004755
 C        -0.729525         0.645942         1.353841
 C        -0.645415        -0.506457         0.297710
 O        -0.405479        -0.429682        -0.902375
 C        -2.080230         2.582696         1.585631
 H        -3.548854         4.260945         2.952644
 H        -1.627145         4.824837         1.484006
 H        -3.592222         3.030621        -0.315395
 H        -1.343114         2.138652        -1.290764
 H        -0.513737         3.517818        -0.415535
 H         0.134568         2.648559         1.540086
 H         0.105194         0.407229         2.002584
 H        -1.642900         0.390614         2.030016
 H        -0.870038        -1.571287         0.631655
 H        -2.699883         2.090268         2.264488
