19
Iteration:  3528charge 0 multiplicity 1
 O        -3.597054         4.768312         1.719645
 C        -3.048996         3.703564         1.024794
 C        -2.760597         2.466490         1.892873
 C        -2.405905         1.278750         1.052428
 C        -1.286048         2.125025         0.250846
 C         0.042971         1.457200         0.404588
 C         0.347989        -0.073259        -0.003756
 O        -0.332744        -0.667432        -0.840471
 C        -1.548669         3.361796         1.213696
 H        -3.580625         5.484360         1.088045
 H        -3.567853         3.520053         0.071208
 H        -3.122165         2.739147         2.935269
 H        -1.876961         0.540289         1.600208
 H        -3.245995         0.690699         0.618199
 H        -1.654859         2.342795        -0.800052
 H         0.735616         2.118906        -0.135294
 H         0.280543         1.512112         1.557380
 H         1.185400        -0.574515         0.441305
 H        -0.712025         3.750663         1.743697
