19
Iteration:  1687
 O        -3.442142         4.715872         0.873632
 C        -3.197349         3.358462         0.829501
 C        -2.319113         2.922317         2.119189
 C        -2.367350         1.409288         2.276320
 C        -1.744007         1.286150         0.854851
 C        -0.236942         0.919269         0.987591
 C         0.389682         0.302579        -0.248722
 O         0.028548         0.479543        -1.416991
 C        -1.812507         2.920040         0.674205
 H        -3.308248         5.085244        -0.043627
 H        -4.088416         2.676160         0.680537
 H        -2.093109         3.704354         2.808434
 H        -1.714715         0.665803         2.870151
 H        -3.356604         0.863182         2.419548
 H        -2.231664         0.773776        -0.053475
 H         0.395057         1.854408         1.202314
 H        -0.204496         0.100527         1.841833
 H         1.416673        -0.141832         0.081124
 H        -1.080053         3.485616         0.143003
