19
Iteration:  2581
 O        -3.486870         4.291213         0.405945
 C        -3.331211         3.003663         0.862329
 C        -2.390390         3.013358         2.047033
 C        -1.946272         1.680805         2.657240
 C        -1.623472         1.183896         1.217075
 C        -0.043134         0.810300         1.057579
 C         0.234139         0.559698        -0.426174
 O        -0.223659         1.104481        -1.431568
 C        -1.885200         2.600538         0.638832
 H        -3.556991         4.384350        -0.544146
 H        -4.149125         2.413391         0.938346
 H        -2.121602         3.998741         2.470657
 H        -1.138517         1.739308         3.274078
 H        -2.755568         1.220795         3.353751
 H        -2.106476         0.357341         0.839244
 H         0.404615         1.823199         1.313579
 H         0.237999        -0.028342         1.695611
 H         1.201457        -0.038055        -0.498669
 H        -1.167213         3.185272         0.077853
