19
Iteration:    32
 O        -3.486989         4.951108         1.683199
 C        -2.759927         3.950921         0.988113
 C        -3.144144         2.444022         1.070027
 C        -2.258023         1.817858        -0.050312
 C        -0.961328         2.168586         0.820326
 C        -0.195225         0.836058         1.265653
 C         0.224582         0.193787        -0.132733
 O        -0.047443        -0.921129        -0.615675
 C        -1.961032         2.942854         1.765088
 H        -4.431400         4.847760         1.378360
 H        -2.356055         4.250326         0.044017
 H        -4.209729         2.277051         1.114300
 H        -2.332263         0.796328        -0.222715
 H        -2.304823         2.480289        -0.876480
 H        -0.211783         2.849436         0.310722
 H         0.539098         0.991595         2.008269
 H        -0.954737         0.203146         1.715141
 H         0.827494         0.864064        -0.770933
 H        -1.683631         3.278581         2.732043
