19
Iteration:  4646
 O        -3.108062         4.871528         2.158218
 C        -2.237311         4.156444         1.239106
 C        -3.045760         3.043255         0.612439
 C        -2.463417         2.140475        -0.476532
 C        -1.297785         1.748743         0.483354
 C        -1.273069         0.308635         0.920478
 C        -0.203694        -0.515112         0.228557
 O         0.841654        -0.093152        -0.346306
 C        -2.024415         2.727926         1.679709
 H        -2.560995         5.174275         2.886323
 H        -1.544176         4.748577         0.663422
 H        -4.113028         3.178550         0.718607
 H        -3.093181         1.287593        -0.513137
 H        -2.279581         2.444210        -1.487536
 H        -0.224152         2.150853         0.153911
 H        -1.132251         0.217091         2.050856
 H        -2.248557        -0.151984         0.703397
 H        -0.334709        -1.568687         0.086392
 H        -1.955824         2.340757         2.735977
