19
Iteration:   267
 O        -3.366579         4.874335         1.850226
 C        -2.868176         3.934850         0.900928
 C        -3.087827         2.458471         1.080742
 C        -2.545102         1.583691        -0.081339
 C        -1.118986         2.018058         0.383514
 C        -0.141571         1.084848         1.256105
 C         0.505249         0.099983         0.228108
 O        -0.238490        -0.537783        -0.524522
 C        -1.754353         2.932881         1.479966
 H        -4.209691         4.574999         2.174025
 H        -2.524407         4.227130        -0.112278
 H        -3.702204         1.962305         1.800294
 H        -2.725833         0.535558         0.257371
 H        -2.923029         1.817206        -1.025194
 H        -0.401864         2.496247        -0.341016
 H         0.446788         1.747014         1.758771
 H        -0.591301         0.461444         1.981258
 H         1.639959         0.010991         0.022926
 H        -1.533252         3.014733         2.515926
