19
Iteration:  4818
 O        -3.214923         4.878902         1.808258
 C        -2.319607         3.903986         1.349832
 C        -2.922758         2.920875         0.365710
 C        -1.652309         2.353603        -0.255079
 C        -1.068609         1.827702         1.140417
 C        -1.023287         0.312784         1.277381
 C        -0.129062        -0.312803         0.264507
 O        -0.072132        -0.094556        -0.966740
 C        -2.355582         2.531021         1.672198
 H        -2.881470         5.175400         2.695675
 H        -1.352314         4.475902         1.087146
 H        -3.909513         3.018371        -0.054822
 H        -1.809358         1.561422        -0.958752
 H        -0.899026         3.030095        -0.796828
 H        -0.126378         2.270395         1.451410
 H        -0.771610        -0.098538         2.259910
 H        -2.055053         0.021625         1.028623
 H         0.631182        -1.049865         0.626654
 H        -2.912512         2.193871         2.622989
