19
Iteration:  2661
 O        -3.632108         4.377537         0.490206
 C        -3.238088         3.130374         0.961426
 C        -2.234333         3.047683         2.101931
 C        -2.107956         1.553658         2.508600
 C        -1.606502         1.264694         1.049787
 C        -0.128417         0.833037         1.020060
 C         0.400672         0.926243        -0.420454
 O        -0.258368         0.484973        -1.349895
 C        -1.802989         2.743574         0.673676
 H        -3.899604         4.297266        -0.414614
 H        -3.892002         2.295314         0.839031
 H        -2.002097         3.988195         2.607163
 H        -1.166223         1.488154         3.020944
 H        -3.104102         1.075075         2.957018
 H        -2.163925         0.550199         0.457505
 H         0.399881         1.560245         1.745491
 H         0.173731        -0.172933         1.505693
 H         1.432345         1.276218        -0.592659
 H        -1.265712         3.451930         0.054129
