19
Iteration:  2000
 O        -3.679936         4.720494         0.987186
 C        -3.391982         3.369397         1.040398
 C        -2.535843         3.034372         2.202752
 C        -2.228513         1.552738         2.268479
 C        -1.673446         1.444524         0.838289
 C        -0.152080         0.930626         0.709067
 C        -0.034951         0.178099        -0.596136
 O         0.958143         0.128374        -1.257351
 C        -1.947022         2.970023         0.751412
 H        -3.538957         5.103788         0.128561
 H        -4.166363         2.755716         0.683202
 H        -2.511987         3.725440         3.092846
 H        -1.479481         1.229842         3.003299
 H        -3.146940         0.954871         2.326381
 H        -2.520229         0.917730         0.228433
 H         0.486951         1.834655         0.725756
 H         0.100141         0.238980         1.458658
 H        -1.000915        -0.392398        -0.977824
 H        -1.410757         3.889741         0.264727
