19
Iteration:  3259charge 0 multiplicity 1
 O        -3.077992         4.854765         0.909464
 C        -3.171217         3.430321         0.919325
 C        -2.359165         2.901271         2.133193
 C        -2.529574         1.365334         2.284826
 C        -1.807596         1.148703         0.807611
 C        -0.417682         0.627185         0.912869
 C         0.422971         0.547101        -0.317440
 O        -0.005066         0.631280        -1.475574
 C        -1.803023         2.718836         0.800338
 H        -2.991940         5.173409        -0.039285
 H        -4.110282         3.019897         0.553349
 H        -2.020038         3.493013         2.960127
 H        -1.962199         0.908543         3.072141
 H        -3.503597         1.000118         2.282684
 H        -2.370730         0.694156         0.032692
 H         0.118829         1.349453         1.653260
 H        -0.452640        -0.521300         1.343621
 H         1.530505         0.441517        -0.285751
 H        -1.249499         3.415593         0.168691
