19
Iteration:  1237charge 0 multiplicity 1
 O        -3.673265         4.715921         1.556563
 C        -3.125485         3.595728         0.908360
 C        -2.754029         2.492649         1.927801
 C        -2.474549         1.207800         1.110889
 C        -1.322117         1.955588         0.368089
 C         0.088653         1.447043         0.630951
 C         0.461168         0.367761        -0.379029
 O        -0.199195        -0.663658        -0.439356
 C        -1.655105         3.262307         1.052140
 H        -3.172002         5.541000         1.309945
 H        -3.749240         3.363606        -0.005028
 H        -3.156377         2.805847         2.910965
 H        -2.013837         0.328626         1.681033
 H        -3.270343         0.870477         0.463931
 H        -1.232166         1.945130        -0.771398
 H         0.792953         2.336752         0.372417
 H         0.152023         0.989923         1.635813
 H         1.460391         0.692098        -1.020597
 H        -0.824209         3.911775         1.341549
