19
Iteration:  2436charge 0 multiplicity 1
 O        -3.794851         4.389620         0.601873
 C        -3.404591         3.105569         1.048042
 C        -2.257711         3.216927         2.031194
 C        -1.926957         1.848881         2.579077
 C        -1.692824         1.178703         1.130745
 C        -0.260137         0.663015         0.931986
 C         0.429419         0.360610        -0.445492
 O         0.349613         1.083871        -1.429925
 C        -2.120909         2.492129         0.547742
 H        -3.952806         4.282700        -0.381811
 H        -4.303110         2.538550         1.270272
 H        -1.805892         4.216757         2.393601
 H        -1.014129         1.670307         3.251937
 H        -2.800210         1.267466         3.145918
 H        -2.380345         0.338060         0.854068
 H         0.493421         1.417274         1.437164
 H        -0.193658        -0.354369         1.332060
 H         1.072802        -0.480851        -0.403371
 H        -1.521359         2.763430        -0.367547
