19
Iteration:  1606
 O        -3.628691         4.770418         1.063303
 C        -3.109171         3.468937         0.790586
 C        -2.592442         2.846735         2.171982
 C        -2.400745         1.372576         2.046362
 C        -1.592791         1.553467         0.714437
 C        -0.140522         1.059437         0.772508
 C         0.530130         0.425472        -0.403004
 O        -0.037045        -0.225032        -1.232513
 C        -1.677002         3.069062         1.005626
 H        -3.644383         5.265451         0.213852
 H        -3.508272         2.914499        -0.064386
 H        -2.860485         3.424232         3.039044
 H        -1.706051         0.896982         2.762097
 H        -3.167007         0.706718         1.797849
 H        -2.112547         1.591935        -0.249205
 H         0.370843         1.911998         1.200338
 H        -0.036783         0.285004         1.652234
 H         1.609955         0.539500        -0.498159
 H        -0.843435         3.774945         0.857309
