19
Iteration:  1015
 O        -3.493493         4.689231         1.858166
 C        -3.071306         3.713407         1.006374
 C        -2.910255         2.449534         1.739120
 C        -2.679931         1.357089         0.781551
 C        -1.396291         2.050064         0.114409
 C        -0.036147         1.438712         0.446894
 C         0.346587         0.301553        -0.356988
 O         0.235833        -0.847542        -0.011008
 C        -1.733965         3.268239         1.010266
 H        -3.094780         5.567645         1.728036
 H        -3.492939         3.704477        -0.074586
 H        -2.965356         2.264803         2.884208
 H        -2.551874         0.350216         1.207015
 H        -3.452461         1.201494        -0.006186
 H        -1.612607         2.115321        -0.942033
 H         0.709288         2.296505         0.203624
 H        -0.035799         1.366854         1.552861
 H         0.982335         0.543235        -1.246800
 H        -0.918187         3.741521         1.482979
