19
Iteration:  4687charge 0 multiplicity 1
 O        -2.888136         4.945633         2.198098
 C        -2.266582         4.004720         1.241770
 C        -3.193738         3.095212         0.501784
 C        -2.426390         2.291853        -0.540324
 C        -1.485096         1.869419         0.572370
 C        -1.089331         0.378452         1.065753
 C         0.005462        -0.432691         0.401606
 O         0.790412        -0.253172        -0.570998
 C        -2.351752         2.478015         1.604312
 H        -2.318864         4.917826         3.031580
 H        -1.476408         4.457739         0.701151
 H        -4.257240         3.336988         0.341222
 H        -3.064126         1.467635        -0.876176
 H        -2.025650         2.903939        -1.400345
 H        -0.497844         2.321779         0.525850
 H        -0.896546         0.423587         2.151243
 H        -1.908130        -0.320923         0.982072
 H         0.097421        -1.488327         0.917580
 H        -2.694923         2.275627         2.649140
