19
Iteration:  4390
 O        -3.470340         4.592379         2.178329
 C        -2.522911         4.111726         1.262898
 C        -3.178939         2.842551         0.697762
 C        -2.317637         2.372632        -0.451154
 C        -1.085045         2.246370         0.479939
 C        -0.776593         0.775205         0.863648
 C         0.073651        -0.089969        -0.153397
 O         0.319756        -1.289286        -0.047321
 C        -1.748355         2.943370         1.651676
 H        -2.967824         5.160766         2.780962
 H        -2.060141         4.866843         0.594882
 H        -4.224719         2.653001         0.959745
 H        -2.586109         1.353669        -0.787832
 H        -2.294809         3.174648        -1.232221
 H        -0.271824         2.862219         0.001297
 H        -0.181538         0.793510         1.837215
 H        -1.698490         0.224004         1.145290
 H         0.394708         0.474671        -1.085504
 H        -1.353287         2.710932         2.719930
