19
Iteration:  3202
 O        -3.130655         4.695111         0.655825
 C        -3.064574         3.313229         1.003600
 C        -2.211359         2.997040         2.140101
 C        -2.341057         1.493082         2.380428
 C        -1.917755         1.165935         0.913717
 C        -0.712523         0.356811         0.848763
 C         0.220757         0.400405        -0.366317
 O         0.143381         1.206616        -1.267504
 C        -1.748809         2.642584         0.677412
 H        -3.188766         4.768928        -0.306765
 H        -4.019822         2.743044         0.782569
 H        -2.010074         3.663448         2.984189
 H        -1.564913         1.112795         2.911281
 H        -3.293476         1.126056         2.776300
 H        -2.722014         0.757912         0.334035
 H         0.160280         0.693058         1.531711
 H        -0.701377        -0.816523         0.942402
 H         1.088336        -0.404712        -0.366062
 H        -0.968999         3.137040         0.196214
