19
Iteration:  2706charge 0 multiplicity 1
 O        -3.726385         4.474999         0.730856
 C        -3.366950         3.137591         0.925103
 C        -2.481579         3.069712         2.121060
 C        -2.108795         1.739299         2.622234
 C        -1.607383         1.359155         1.034705
 C        -0.122003         0.807690         0.887222
 C         0.530847         0.776007        -0.559556
 O         0.078972         0.148080        -1.504914
 C        -1.857946         2.859284         0.728388
 H        -3.588040         4.598083        -0.194467
 H        -4.149290         2.402790         0.723033
 H        -2.153025         3.858035         2.638096
 H        -1.258420         1.869192         3.332149
 H        -2.960533         1.044949         3.014589
 H        -2.204259         0.754893         0.369136
 H         0.509744         1.387430         1.575179
 H        -0.247555        -0.265913         1.336141
 H         1.424221         1.410766        -0.673898
 H        -1.189265         3.577225         0.319543
