19
Iteration:   876
 O        -3.427893         4.794450         1.942081
 C        -3.195833         3.809407         0.988820
 C        -3.090795         2.504763         1.553067
 C        -2.705543         1.484269         0.580716
 C        -1.377585         2.232504         0.129565
 C        -0.071114         1.358195         0.364125
 C        -0.057329        -0.095496        -0.121185
 O         0.891061        -0.842931        -0.138026
 C        -1.718131         3.163585         1.278230
 H        -3.223244         5.716971         1.621391
 H        -3.605377         3.829381        -0.035458
 H        -3.516181         2.070872         2.532720
 H        -2.681273         0.427093         1.081449
 H        -3.515617         1.438199        -0.133431
 H        -1.223232         2.609334        -0.950377
 H         0.808263         1.943138         0.069504
 H         0.122633         1.418135         1.455097
 H        -1.108778        -0.406448        -0.440315
 H        -1.172941         3.808308         1.894830
