19
Iteration:  2068
 O        -3.882410         4.649455         1.134678
 C        -3.372402         3.382476         1.099444
 C        -2.384749         3.105097         2.162381
 C        -2.195411         1.609229         2.281814
 C        -1.739570         1.458240         0.789518
 C        -0.399590         0.910377         0.525619
 C         0.120507         0.454498        -0.862432
 O         1.093481        -0.308052        -0.997511
 C        -1.937839         3.162136         0.711787
 H        -4.206071         4.884147         0.236143
 H        -4.059918         2.607517         0.827667
 H        -2.051444         3.779295         2.898250
 H        -1.469492         1.381899         3.164652
 H        -3.060692         1.063883         2.553230
 H        -2.486563         0.910602         0.099309
 H         0.350078         1.686981         0.884234
 H        -0.139731         0.149376         1.178057
 H        -0.485495         0.838366        -1.728870
 H        -1.166333         3.834729         0.386717
