19
Iteration:  2409charge 0 multiplicity 1
 O        -3.664250         4.348271         0.523522
 C        -3.396605         3.050498         1.059871
 C        -2.101247         3.108614         1.937742
 C        -2.030153         1.743989         2.655079
 C        -1.747022         1.121763         1.163174
 C        -0.309750         0.855528         0.980579
 C         0.351773         0.512366        -0.405983
 O         0.259290         1.054552        -1.487264
 C        -2.029263         2.521708         0.600157
 H        -3.863721         4.151507        -0.426817
 H        -4.281890         2.465979         1.335746
 H        -1.841091         4.022868         2.320205
 H        -1.138715         1.543647         3.323068
 H        -2.921345         1.339831         3.072112
 H        -2.397926         0.289549         0.819248
 H         0.137176         1.881310         1.344603
 H         0.125753        -0.015257         1.551865
 H         1.051593        -0.385074        -0.339470
 H        -1.574145         2.907211        -0.308280
