19
Iteration:  2803charge 0 multiplicity 1
 O        -3.782997         4.645355         1.010369
 C        -3.344234         3.274634         0.960154
 C        -2.441950         2.985506         2.135899
 C        -2.155004         1.471636         2.235220
 C        -1.609207         1.445605         0.791032
 C        -0.081735         1.100344         0.792036
 C         0.189264         0.802711        -0.651377
 O         0.453117        -0.298345        -1.095638
 C        -1.829590         2.917573         0.743724
 H        -4.074364         4.849699         0.129100
 H        -4.123017         2.593179         0.707634
 H        -2.272454         3.692163         2.879135
 H        -1.430659         1.319293         2.917974
 H        -3.165540         0.942639         2.313195
 H        -2.220352         0.784985         0.152616
 H         0.387003         2.149936         1.139888
 H         0.306539         0.328419         1.435235
 H         0.179694         1.687889        -1.332535
 H        -1.361534         3.701086         0.130315
