19
Iteration:  2079
 O        -3.919388         4.716444         1.165123
 C        -3.379044         3.379358         1.089383
 C        -2.357097         3.106359         2.186440
 C        -2.171646         1.586540         2.276614
 C        -1.782940         1.498816         0.717012
 C        -0.294882         0.907188         0.599114
 C         0.205398         0.509060        -0.765772
 O         1.019802        -0.338625        -1.034681
 C        -1.948487         3.065487         0.641631
 H        -4.315021         4.956840         0.338387
 H        -4.087881         2.602062         0.930795
 H        -2.278353         3.944326         2.818074
 H        -1.257307         1.101002         2.861305
 H        -3.108642         1.093621         2.429409
 H        -2.577339         0.803446         0.238128
 H         0.436866         1.675045         0.996977
 H        -0.315499         0.023969         1.101451
 H        -0.305872         0.912389        -1.653090
 H        -1.359238         3.794523         0.112271
