19
Iteration:  2433
 O        -3.774022         4.361947         0.600013
 C        -3.384458         3.123233         1.046956
 C        -2.258850         3.204531         2.048550
 C        -1.951001         1.833411         2.586946
 C        -1.743134         1.194672         1.153720
 C        -0.260504         0.670898         0.949319
 C         0.418698         0.379171        -0.444803
 O         0.352030         1.081317        -1.453219
 C        -2.127011         2.488582         0.513579
 H        -3.907315         4.265846        -0.329516
 H        -4.229672         2.543582         1.266016
 H        -1.786952         4.164820         2.368989
 H        -0.970869         1.721415         3.299587
 H        -2.823407         1.393178         3.115664
 H        -2.281460         0.329221         0.841155
 H         0.574472         1.448688         1.381798
 H        -0.076879        -0.346755         1.383272
 H         1.150033        -0.494393        -0.446772
 H        -1.557679         2.771963        -0.317696
