19
Iteration:  1029
 O        -3.595372         4.728436         1.859359
 C        -3.085725         3.706295         0.992376
 C        -2.788687         2.479375         1.766210
 C        -2.677835         1.296008         0.755648
 C        -1.496486         2.024624         0.105229
 C        -0.072328         1.530376         0.457129
 C         0.481773         0.262326        -0.328773
 O         0.148087        -0.864536        -0.065279
 C        -1.569427         3.241844         1.048102
 H        -3.272724         5.531720         1.429912
 H        -3.691594         3.620631         0.074921
 H        -3.127833         2.545216         2.770952
 H        -2.319280         0.255719         1.255771
 H        -3.667385         1.224336         0.183436
 H        -1.456487         2.273900        -0.995310
 H         0.682671         2.379396         0.435800
 H        -0.116026         1.075488         1.445643
 H         1.070630         0.487934        -1.189481
 H        -0.772607         3.855006         1.573026
