19
Iteration:   365charge 0 multiplicity 1
 O        -3.586787         4.801674         1.410928
 C        -2.713154         3.849908         0.936052
 C        -3.209397         2.448791         1.263646
 C        -2.439737         1.597096         0.208308
 C        -1.003163         2.077145         0.701783
 C         0.018588         1.055525         1.136341
 C         0.387650         0.052082         0.084066
 O        -0.330003        -0.422655        -0.749240
 C        -1.800072         2.898231         1.732769
 H        -3.124851         5.387484         2.027695
 H        -2.347545         4.096360        -0.039797
 H        -3.968389         2.309025         2.014466
 H        -2.647331         0.493886         0.356391
 H        -2.684774         1.788771        -0.861641
 H        -0.433381         2.621113        -0.006297
 H         0.909929         1.533634         1.495986
 H        -0.331110         0.453157         2.055459
 H         1.467072        -0.273721         0.164584
 H        -1.413075         3.360625         2.654482
