19
Iteration:  2975
 O        -3.650346         4.806581         1.023106
 C        -3.381240         3.450167         1.115035
 C        -2.347833         3.049793         2.173724
 C        -2.273213         1.547148         2.437722
 C        -1.850803         1.323872         0.820756
 C        -0.473913         0.694842         0.563730
 C         0.036234         0.314463        -0.813332
 O         1.218383         0.210701        -1.084931
 C        -2.015037         2.947997         0.634502
 H        -3.548809         5.125256         0.072446
 H        -4.279450         2.787096         1.037113
 H        -2.026299         3.787538         2.913181
 H        -1.300621         1.314799         3.053467
 H        -3.089944         1.007013         2.885218
 H        -2.709612         0.998446         0.255239
 H         0.232663         1.189762         1.165789
 H        -0.608209        -0.358453         1.207768
 H        -0.776621        -0.164411        -1.473652
 H        -1.607286         3.703275        -0.127785
