19
Iteration:  2698
 O        -3.719814         4.463938         0.695110
 C        -3.325021         3.127805         0.925025
 C        -2.451864         3.081334         2.101167
 C        -2.160815         1.684387         2.596810
 C        -1.546371         1.353814         1.094371
 C        -0.137824         0.790845         0.966225
 C         0.505761         0.821966        -0.582745
 O         0.029013         0.204673        -1.507732
 C        -1.851080         2.844868         0.713876
 H        -3.651110         4.658273        -0.231026
 H        -4.202856         2.371505         0.601820
 H        -2.135055         3.987473         2.687165
 H        -1.274580         1.578433         3.450217
 H        -2.896748         1.317428         3.191966
 H        -2.261753         0.606143         0.561642
 H         0.533744         1.415009         1.421766
 H        -0.107074        -0.303486         1.234232
 H         1.499384         1.338570        -0.604082
 H        -1.186897         3.466325         0.075727
