19
Iteration:  4484charge 0 multiplicity 1
 O        -3.038868         5.002888         2.015447
 C        -2.445123         4.031125         1.299911
 C        -3.221566         2.972159         0.575790
 C        -2.469001         2.134657        -0.407349
 C        -1.334403         1.959641         0.750070
 C        -0.678577         0.560248         1.003423
 C        -0.167915        -0.063947        -0.296927
 O         0.771489        -0.813870        -0.192838
 C        -2.314223         2.636074         1.796807
 H        -2.493980         5.149755         2.847784
 H        -1.490555         4.368666         0.755919
 H        -4.289140         3.226713         0.341037
 H        -2.998621         1.084923        -0.505706
 H        -2.103810         2.540945        -1.423535
 H        -0.518229         2.623042         0.649520
 H         0.216877         0.567469         1.632949
 H        -1.438367        -0.154942         1.495043
 H        -0.773523         0.085363        -1.218609
 H        -2.564585         2.301283         2.841521
