19
Iteration:  3124charge 0 multiplicity 1
 O        -3.191702         4.608316         0.550270
 C        -3.036246         3.278868         0.860616
 C        -2.215627         2.972998         2.077463
 C        -2.159243         1.533436         2.498711
 C        -1.938495         1.121871         1.049907
 C        -0.758393         0.285733         0.831336
 C        -0.128727         0.418605        -0.583336
 O         0.396667         1.432334        -0.979360
 C        -1.741317         2.624904         0.688499
 H        -2.823556         4.589093        -0.381897
 H        -3.958067         2.661450         0.701774
 H        -1.965199         3.758770         2.862997
 H        -1.455022         1.315632         3.180182
 H        -3.087243         1.218260         2.974941
 H        -2.810483         0.705811         0.609034
 H         0.222151         0.296718         1.454728
 H        -0.905164        -0.903695         0.770702
 H        -0.164318        -0.517963        -1.209116
 H        -0.909676         3.032732         0.003669
