19
Iteration:   631charge 0 multiplicity 1
 O        -3.350265         5.059443         1.376900
 C        -2.820942         3.883097         0.969287
 C        -3.279077         2.604680         1.568971
 C        -2.887584         1.325291         0.676380
 C        -1.451681         1.899935         0.535473
 C        -0.399189         0.772457         1.058330
 C         0.019619        -0.179115        -0.123983
 O         0.990606        -0.025012        -0.831663
 C        -1.682865         3.008466         1.548941
 H        -2.601701         5.715719         1.231227
 H        -2.729571         3.854212        -0.100054
 H        -3.640559         2.472995         2.616997
 H        -2.780942         0.383114         1.177051
 H        -3.529510         1.039735        -0.250423
 H        -1.024405         2.232122        -0.412820
 H         0.478174         1.245527         1.519549
 H        -0.879518         0.087841         1.900831
 H        -0.688782        -1.002446        -0.415667
 H        -1.130525         3.249824         2.412191
