19
Iteration:  1092charge 0 multiplicity 1
 O        -3.600944         4.711777         1.697260
 C        -3.200399         3.565889         0.932100
 C        -2.831905         2.456552         1.787214
 C        -2.419427         1.245198         0.940832
 C        -1.206057         2.063783         0.296502
 C         0.190839         1.501527         0.562432
 C         0.374026         0.313407        -0.343434
 O        -0.215078        -0.739363        -0.251334
 C        -1.746864         3.311341         1.060283
 H        -3.324558         5.458521         1.170341
 H        -3.678357         3.323841        -0.078312
 H        -2.888606         2.539398         2.895641
 H        -2.005294         0.316637         1.389864
 H        -3.287230         0.940230         0.355346
 H        -1.365033         2.021735        -0.898794
 H         0.906953         2.400339         0.471097
 H         0.290505         1.035141         1.560430
 H         1.189211         0.469783        -1.154229
 H        -1.051318         4.012066         1.556470
