19
Iteration:  3615
 O        -3.276343         4.691896         1.966007
 C        -3.028543         3.680536         1.006563
 C        -2.837848         2.278046         1.687844
 C        -2.524055         1.204983         0.676002
 C        -1.384840         2.141115         0.037118
 C         0.064342         1.590380         0.480582
 C         0.314064         0.248062        -0.294033
 O        -0.360081        -0.720194        -0.087586
 C        -1.693165         3.265960         1.083847
 H        -2.841039         5.471712         1.685197
 H        -3.553723         3.784666         0.063182
 H        -2.781590         2.266033         2.783774
 H        -2.109760         0.300767         0.987310
 H        -3.372234         0.946656        -0.027917
 H        -1.339937         2.367867        -0.968653
 H         0.851216         2.333681         0.380022
 H        -0.064174         1.452578         1.476592
 H         1.092783         0.288928        -1.021383
 H        -0.963963         3.895408         1.693822
