19
Iteration:  2867charge 0 multiplicity 1
 O        -3.769623         4.745278         1.037067
 C        -3.351293         3.354687         1.072191
 C        -2.535451         2.971976         2.251149
 C        -2.260670         1.496855         2.323018
 C        -1.736714         1.454382         0.830860
 C        -0.142667         1.111000         0.594566
 C         0.168411         0.553568        -0.849662
 O         0.911014        -0.386684        -1.087867
 C        -2.004661         3.032221         0.759102
 H        -3.577621         5.103831         0.142353
 H        -4.285428         2.740738         0.815503
 H        -2.189036         3.728037         2.903041
 H        -1.473301         1.212638         3.013986
 H        -3.117464         0.792293         2.642389
 H        -2.447003         1.016986         0.060800
 H         0.425109         2.098922         0.713221
 H         0.071967         0.485827         1.309551
 H        -0.314832         1.197486        -1.661269
 H        -1.310211         3.766518         0.289276
