19
Iteration:  3237charge 0 multiplicity 1
 O        -3.134168         4.828583         0.839572
 C        -3.110207         3.430678         0.973709
 C        -2.344363         2.913654         2.151936
 C        -2.498898         1.454841         2.333720
 C        -1.919291         1.149185         1.013185
 C        -0.432355         0.462038         0.915295
 C         0.404447         0.505788        -0.372076
 O         0.095029         0.857773        -1.505032
 C        -1.852278         2.655671         0.585340
 H        -2.704756         4.979894        -0.001841
 H        -4.058088         3.002038         0.671759
 H        -1.998861         3.603660         2.863797
 H        -1.887524         1.006447         3.074925
 H        -3.465054         1.104304         2.506269
 H        -2.489722         0.631594         0.301850
 H         0.150837         0.870253         1.807517
 H        -0.755381        -0.613780         1.248434
 H         1.486967         0.045933        -0.265822
 H        -0.942595         3.153184         0.392075
