19
Iteration:  1507
 O        -3.576917         4.727049         1.238721
 C        -3.106796         3.486539         0.803385
 C        -2.680159         2.636218         2.060567
 C        -2.476724         1.193862         1.710108
 C        -1.392970         1.787956         0.543432
 C         0.030410         1.409400         0.590521
 C         0.499811         0.285298        -0.260917
 O        -0.251246        -0.384619        -0.941017
 C        -1.693733         3.221187         1.055142
 H        -3.576180         5.411538         0.574465
 H        -3.523829         2.948300         0.016357
 H        -2.914626         2.992869         3.078667
 H        -1.825178         0.592746         2.347129
 H        -3.407871         0.684130         1.711188
 H        -1.775626         1.489860        -0.345131
 H         0.596410         2.309883         0.411358
 H         0.436598         1.301308         1.654608
 H         1.652468         0.189935        -0.243134
 H        -0.916996         3.933863         1.199073
