19
Iteration:  4815
 O        -3.215700         4.883484         1.805705
 C        -2.319231         3.905062         1.343443
 C        -2.907097         2.934640         0.377257
 C        -1.655719         2.341594        -0.256730
 C        -1.098750         1.814105         1.130962
 C        -1.029597         0.301480         1.285660
 C        -0.123274        -0.287417         0.250461
 O        -0.060989        -0.084901        -0.949846
 C        -2.337785         2.509176         1.676699
 H        -2.850590         5.131885         2.644104
 H        -1.406832         4.480513         1.024442
 H        -3.936523         3.095675         0.074814
 H        -1.870207         1.537030        -1.012359
 H        -0.925718         2.955342        -0.779846
 H        -0.033166         2.249421         1.385881
 H        -0.855489        -0.115214         2.272494
 H        -2.081375        -0.031850         0.930301
 H         0.572212        -0.968880         0.664011
 H        -2.860054         2.259584         2.616466
