19
Iteration:  2748
 O        -3.835104         4.515902         0.786958
 C        -3.311207         3.236341         1.051126
 C        -2.375966         3.055485         2.159218
 C        -2.062121         1.541131         2.382682
 C        -1.622398         1.483000         0.819258
 C        -0.181149         0.919494         0.825050
 C         0.478101         0.767086        -0.491367
 O         0.214564        -0.097675        -1.325098
 C        -1.900634         2.982950         0.742823
 H        -4.006203         4.624781        -0.162695
 H        -3.963010         2.460403         0.892149
 H        -2.287189         3.872913         2.773740
 H        -1.250406         1.474258         2.965483
 H        -2.854529         0.834972         2.881463
 H        -2.308133         0.851096         0.302267
 H         0.498577         1.582371         1.488527
 H        -0.307886        -0.105664         1.141461
 H         1.037384         1.704573        -0.816607
 H        -1.259587         3.768347         0.450601
