19
Iteration:  3718charge 0 multiplicity 1
 O        -3.467896         4.760934         2.002466
 C        -2.949463         3.832513         1.100364
 C        -2.941917         2.442092         1.609423
 C        -2.620688         1.506893         0.461879
 C        -1.315968         2.232744         0.083620
 C        -0.109609         1.341923         0.298530
 C        -0.223043         0.010503        -0.328590
 O         0.525826        -0.925671         0.001424
 C        -1.578925         3.220555         1.339150
 H        -3.042441         5.641561         1.917851
 H        -3.269239         4.073421         0.032787
 H        -3.554305         2.256291         2.547295
 H        -2.498229         0.393990         0.805283
 H        -3.492186         1.479188        -0.276140
 H        -1.312890         2.717097        -0.918058
 H         0.747208         1.885513        -0.072112
 H         0.004852         1.241534         1.451109
 H        -1.086366        -0.085812        -1.128582
 H        -0.860247         3.548490         2.053957
