19
Iteration:   936charge 0 multiplicity 1
 O        -3.633592         4.709446         1.863939
 C        -2.947467         3.831803         1.020812
 C        -2.991664         2.487675         1.685608
 C        -2.752624         1.405143         0.603992
 C        -1.385925         2.184386         0.116044
 C         0.008230         1.397619         0.224347
 C        -0.027259         0.022812        -0.286719
 O         0.697556        -0.860459         0.061569
 C        -1.624056         3.220884         1.279398
 H        -3.222851         5.596203         1.869287
 H        -3.445523         3.726878        -0.012151
 H        -3.376612         2.387832         2.653592
 H        -2.609018         0.418343         0.817174
 H        -3.480514         1.486202        -0.214381
 H        -1.524759         2.772941        -0.764390
 H         0.707426         2.228621        -0.050256
 H         0.095335         1.228363         1.350209
 H        -0.957069        -0.146482        -0.903852
 H        -0.870660         3.674268         1.969709
