19
Iteration:  2940
 O        -3.786810         4.725009         1.146232
 C        -3.299392         3.418417         1.067901
 C        -2.371060         3.086334         2.180235
 C        -2.223322         1.549317         2.299336
 C        -1.816007         1.486922         0.697185
 C        -0.461886         0.775293         0.565382
 C         0.012242         0.311256        -0.791142
 O         1.170647        -0.007390        -0.992476
 C        -1.900757         3.072881         0.661833
 H        -4.239840         4.923960         0.273200
 H        -4.136792         2.763971         0.889600
 H        -2.087590         3.671263         2.973827
 H        -1.210414         1.388680         2.894178
 H        -3.044964         0.968880         2.736730
 H        -2.562300         0.905113         0.081532
 H         0.296700         1.429399         0.955605
 H        -0.505720        -0.253229         1.235958
 H        -0.814277         0.124608        -1.565382
 H        -1.411958         3.789911         0.087330
