19
Iteration:  3906charge 0 multiplicity 1
 O        -2.984324         5.030002         1.545379
 C        -2.628913         3.915410         0.896756
 C        -3.269991         2.705224         1.482395
 C        -3.200083         1.445730         0.692470
 C        -1.552755         1.708600         0.583257
 C        -0.434293         0.687037         0.941634
 C        -0.043368        -0.081618        -0.223440
 O         1.039903         0.059531        -0.793592
 C        -1.769296         2.819535         1.604678
 H        -2.254795         5.589855         1.726147
 H        -2.485446         3.815010        -0.238770
 H        -3.966864         2.897611         2.240409
 H        -3.685054         0.566093         1.398371
 H        -3.670859         1.427289        -0.334479
 H        -1.525231         2.029622        -0.505280
 H         0.398049         1.129371         1.443661
 H        -0.992567         0.009137         1.583065
 H        -0.937029        -0.718453        -0.478954
 H        -1.268334         3.027502         2.612406
