19
Iteration:  4605
 O        -2.948724         4.853321         2.030344
 C        -2.429969         4.011419         1.109465
 C        -3.141863         2.739568         0.832811
 C        -2.338277         2.225418        -0.447555
 C        -1.185077         1.866972         0.613880
 C        -1.337037         0.357346         0.861686
 C        -0.367007        -0.460106        -0.004497
 O         0.775576         0.007677        -0.121324
 C        -1.883522         2.669597         1.687344
 H        -2.241714         5.352366         2.459214
 H        -1.756297         4.637915         0.359113
 H        -4.203519         2.738699         0.882060
 H        -2.862891         1.386533        -1.028087
 H        -2.119567         3.088764        -1.119740
 H        -0.149148         2.063989         0.360384
 H        -0.914119         0.287327         1.845114
 H        -2.326517        -0.168030         0.862743
 H        -0.869044        -1.403320        -0.541377
 H        -1.887885         2.910542         2.782210
