19
Iteration:  3752charge 0 multiplicity 1
 O        -3.270652         4.882933         2.043652
 C        -2.995064         3.868326         1.093049
 C        -3.113916         2.443969         1.554444
 C        -2.831048         1.456952         0.480786
 C        -1.386180         2.079258         0.104115
 C        -0.103011         1.314179         0.406637
 C        -0.113804         0.002465        -0.210417
 O         0.721527        -0.876516        -0.185872
 C        -1.696924         3.208446         1.310627
 H        -2.568969         5.589389         1.825188
 H        -3.206711         4.162923         0.003362
 H        -3.967943         2.394956         2.261711
 H        -2.752630         0.330254         0.891212
 H        -3.518427         1.530981        -0.405404
 H        -1.294772         2.568451        -0.871731
 H         0.754118         1.850546        -0.022561
 H         0.098068         1.405341         1.565403
 H        -1.177427        -0.388349        -0.608845
 H        -1.004491         3.535611         2.010606
