19
Iteration:   682
 O        -3.266803         5.023902         1.424128
 C        -2.860425         3.874027         0.875011
 C        -3.266692         2.611429         1.591158
 C        -3.019686         1.376762         0.778161
 C        -1.481912         1.777454         0.594191
 C        -0.301468         0.845578         1.100963
 C         0.048286         0.023056        -0.223908
 O         1.095560        -0.204721        -0.815848
 C        -1.763583         2.982913         1.461116
 H        -2.468846         5.489601         1.765348
 H        -3.012460         3.783476        -0.232015
 H        -4.118522         2.637321         2.230322
 H        -3.259236         0.469714         1.388549
 H        -3.621704         1.382645        -0.148465
 H        -1.262395         2.123450        -0.498093
 H         0.616396         1.388932         1.355142
 H        -0.552321         0.323398         1.980010
 H        -0.875979        -0.374042        -0.771689
 H        -1.250000         3.368771         2.284791
