19
Iteration:   418
 O        -3.467424         4.862432         1.702281
 C        -2.895299         3.830605         0.838967
 C        -3.155755         2.417314         1.206668
 C        -2.527577         1.424875         0.253392
 C        -1.050904         1.955752         0.486477
 C        -0.047715         1.051275         1.236557
 C         0.316788        -0.095022         0.311827
 O        -0.161155        -0.129090        -0.818561
 C        -1.677791         3.041423         1.450591
 H        -2.707778         5.472489         1.649936
 H        -3.034240         4.115042        -0.182078
 H        -4.031258         2.267217         1.797993
 H        -2.643385         0.386268         0.789423
 H        -2.953496         1.266955        -0.808941
 H        -0.466079         2.213607        -0.418382
 H         0.780153         1.666358         1.785550
 H        -0.630062         0.535279         2.135407
 H         1.080541        -0.885532         0.521173
 H        -1.218506         3.309457         2.385306
