19
Iteration:  3242charge 0 multiplicity 1
 O        -3.131058         4.858675         0.858730
 C        -3.118264         3.441998         0.985016
 C        -2.376352         2.914445         2.146562
 C        -2.520367         1.431447         2.324258
 C        -1.890853         1.150448         0.958886
 C        -0.398171         0.483870         0.900823
 C         0.410525         0.519932        -0.348823
 O         0.070032         0.806557        -1.514050
 C        -1.830722         2.650605         0.608726
 H        -2.710919         5.017464        -0.012783
 H        -4.112881         2.985219         0.764016
 H        -2.054470         3.731692         2.861923
 H        -1.931677         0.978542         3.247677
 H        -3.572249         1.014124         2.579507
 H        -2.483952         0.545499         0.174729
 H         0.173354         0.847283         1.731426
 H        -0.526439        -0.507252         1.239066
 H         1.406251         0.107065        -0.088677
 H        -0.846237         3.150276         0.246925
