19
Iteration:  2695charge 0 multiplicity 1
 O        -3.717773         4.462463         0.676754
 C        -3.314582         3.130814         0.914105
 C        -2.414181         3.104029         2.114422
 C        -2.154179         1.653508         2.580322
 C        -1.539787         1.342266         1.120536
 C        -0.144198         0.798888         0.973563
 C         0.481412         0.833647        -0.567510
 O         0.010815         0.231947        -1.509176
 C        -1.845832         2.824754         0.704609
 H        -3.699054         4.700223        -0.265197
 H        -4.078248         2.380348         0.644354
 H        -2.336418         3.968704         2.628398
 H        -1.308908         1.537155         3.348975
 H        -3.033088         1.281048         3.227665
 H        -2.229573         0.620047         0.693364
 H         0.621655         1.396726         1.470493
 H         0.001046        -0.334146         1.243701
 H         1.474005         1.290615        -0.614291
 H        -1.265294         3.389390         0.024561
