19
Iteration:   847charge 0 multiplicity 1
 O        -3.369681         4.871357         1.942257
 C        -3.069223         3.864198         0.947868
 C        -2.981827         2.438267         1.553806
 C        -2.770370         1.223277         0.521269
 C        -1.471509         2.026647         0.176006
 C        -0.131059         1.395305         0.630280
 C        -0.129649         0.058161        -0.131602
 O         0.857759        -0.646175        -0.195751
 C        -1.730740         3.139123         1.120886
 H        -2.803285         5.650435         1.924942
 H        -3.531397         4.011272        -0.087940
 H        -3.415396         2.264649         2.561992
 H        -2.778419         0.244099         0.909554
 H        -3.552172         1.329721        -0.246988
 H        -1.266453         2.171512        -0.847733
 H         0.726279         2.126579         0.446638
 H        -0.133485         1.170898         1.754052
 H        -1.066469        -0.426793        -0.519465
 H        -0.879501         3.689418         1.575570
