19
Iteration:  2778
 O        -3.873836         4.541135         0.962585
 C        -3.263167         3.270892         1.019486
 C        -2.322549         3.004012         2.111293
 C        -2.281173         1.515944         2.308458
 C        -1.539031         1.491931         0.854539
 C        -0.077546         1.035518         0.807076
 C         0.360915         0.820208        -0.606087
 O         0.314318        -0.246158        -1.191814
 C        -1.839375         2.988008         0.645664
 H        -4.048909         4.627733         0.018413
 H        -4.060088         2.451870         0.813077
 H        -2.167905         3.740490         2.933091
 H        -1.695974         1.292910         3.286475
 H        -3.293490         1.143831         2.249381
 H        -2.146278         0.729717         0.249143
 H         0.566383         1.747404         1.461531
 H        -0.100868         0.065909         1.243298
 H         0.485313         1.765889        -1.185422
 H        -1.368040         3.778167         0.095038
