19
Iteration:   137charge 0 multiplicity 1
 O        -3.198583         4.915239         1.902680
 C        -2.744724         3.911322         0.918714
 C        -3.282618         2.472447         0.942810
 C        -2.555922         1.552671        -0.036161
 C        -1.105728         2.172529         0.498713
 C        -0.188942         1.058013         1.189324
 C         0.444833         0.201411         0.128429
 O        -0.105264        -0.670357        -0.513518
 C        -1.946175         2.845398         1.559418
 H        -4.174941         4.921218         1.737055
 H        -2.290174         4.258190        -0.054808
 H        -4.191968         2.217615         1.532422
 H        -2.409996         0.484870         0.290523
 H        -2.974153         1.448343        -1.044646
 H        -0.459003         2.716216        -0.192051
 H         0.655868         1.551248         1.786144
 H        -0.843268         0.436564         1.858969
 H         1.591908         0.364900         0.071727
 H        -1.819320         2.699967         2.596826
