19
Iteration:  4127charge 0 multiplicity 1
 O        -3.212428         4.788811         1.957439
 C        -2.658456         3.965266         1.021196
 C        -3.258044         2.599343         1.110378
 C        -2.687321         1.672423        -0.009185
 C        -1.187135         2.078226         0.454718
 C        -0.265079         0.930665         1.107013
 C         0.424926        -0.069015         0.228485
 O        -0.115065        -0.487363        -0.818894
 C        -1.804765         2.881032         1.557326
 H        -2.602094         5.433160         2.273728
 H        -2.223496         4.492617         0.083135
 H        -4.158444         2.601196         1.678146
 H        -2.971155         0.545448         0.055681
 H        -2.749708         2.084473        -0.967826
 H        -0.660513         2.733858        -0.397512
 H         0.457307         1.378184         1.825616
 H        -0.901408         0.324406         1.771841
 H         1.442772        -0.379307         0.464683
 H        -1.498530         2.844320         2.571146
