19
Iteration:  4032
 O        -3.117533         4.970348         1.681017
 C        -2.611461         3.928594         0.853125
 C        -3.104044         2.578475         1.401670
 C        -2.840436         1.432210         0.360707
 C        -1.352209         1.852941         0.621375
 C        -0.661970         0.635737         1.168871
 C        -0.026894        -0.239433         0.030685
 O         0.587099         0.159351        -0.973643
 C        -1.694944         2.978432         1.582251
 H        -2.562553         5.738660         1.448649
 H        -2.493290         4.135745        -0.209684
 H        -3.921506         2.703787         2.074217
 H        -3.020615         0.503682         0.852159
 H        -3.395943         1.531681        -0.671063
 H        -0.744731         2.176964        -0.161305
 H         0.298694         0.879685         1.765781
 H        -1.253726        -0.023765         1.866158
 H        -0.146660        -1.316896         0.233233
 H        -1.075803         3.198721         2.465630
