19
Iteration:    87charge 0 multiplicity 1
 O        -3.465543         4.788726         1.548454
 C        -2.588842         3.939754         0.957258
 C        -3.184869         2.576746         0.974824
 C        -2.440055         1.653179         0.041064
 C        -1.078243         2.054814         0.791759
 C        -0.058482         0.948269         1.275594
 C         0.346020         0.254246        -0.054757
 O        -0.192158        -0.707636        -0.608929
 C        -2.002331         2.867524         1.788654
 H        -3.041880         5.029167         2.411696
 H        -2.027284         4.180294         0.085407
 H        -4.181574         2.481917         1.273226
 H        -2.613991         0.626912         0.063728
 H        -2.628950         1.857229        -1.020835
 H        -0.444908         2.779336         0.194958
 H         0.732071         1.387340         1.830253
 H        -0.718086         0.345354         1.880152
 H         0.925779         1.057558        -0.673081
 H        -1.737797         2.991811         2.844215
