19
Iteration:  1797
 O        -3.263927         4.446096         0.349748
 C        -2.990966         3.175434         0.804474
 C        -2.207261         3.011735         2.085204
 C        -2.260107         1.621745         2.617823
 C        -1.820326         1.102606         1.169372
 C        -0.612716         0.298789         1.010267
 C         0.218830         0.699168        -0.347531
 O        -0.147941         1.412360        -1.256168
 C        -1.659687         2.538136         0.678692
 H        -2.747059         4.466447        -0.450058
 H        -3.864501         2.544468         0.477923
 H        -1.875822         3.991218         2.410792
 H        -1.329746         1.361158         3.157917
 H        -3.120110         0.976984         2.907246
 H        -2.689993         0.560700         0.535176
 H         0.121853         0.412378         1.797296
 H        -0.644869        -0.800513         0.945314
 H         1.233444         0.080182        -0.427900
 H        -0.844148         2.939161         0.098816
