19
Iteration:   954charge 0 multiplicity 1
 O        -3.461557         4.749669         1.905096
 C        -3.127551         3.748954         0.962229
 C        -2.929611         2.410954         1.649332
 C        -2.647828         1.347306         0.565125
 C        -1.392570         2.201109         0.194411
 C        -0.067148         1.513059         0.347929
 C        -0.045251         0.067419        -0.345197
 O         0.608285        -0.843857         0.085197
 C        -1.705577         3.215218         1.249501
 H        -3.018608         5.547632         1.542173
 H        -3.210551         3.864848        -0.119530
 H        -3.466477         2.261929         2.576087
 H        -2.399493         0.382654         1.149315
 H        -3.436033         1.149972        -0.161800
 H        -1.404912         2.462242        -0.916149
 H         0.772234         2.068658        -0.113455
 H         0.156633         1.423644         1.422033
 H        -0.687466         0.060396        -1.323279
 H        -0.982389         3.800941         1.871311
