19
Iteration:  3443charge 0 multiplicity 1
 O        -3.435375         4.796095         1.345962
 C        -3.071751         3.548974         0.963630
 C        -2.621688         2.607383         2.031235
 C        -2.444421         1.188683         1.529713
 C        -1.455115         1.774906         0.555737
 C         0.002192         1.229856         0.758483
 C         0.335241         0.066020        -0.205222
 O        -0.322243        -0.119897        -1.208253
 C        -1.656831         3.261449         1.042434
 H        -3.116149         5.485968         0.683375
 H        -3.662737         3.132886         0.077298
 H        -2.645151         2.811715         3.138953
 H        -1.966916         0.677046         2.343056
 H        -3.482058         0.684115         1.249170
 H        -1.666178         1.385065        -0.534865
 H         0.672014         2.101936         0.612692
 H         0.264860         0.962806         1.844831
 H         1.186083        -0.573742         0.192908
 H        -0.859600         3.978100         1.266113
