19
Iteration:  2580charge 0 multiplicity 1
 O        -3.488954         4.292422         0.402746
 C        -3.330878         3.003510         0.868801
 C        -2.388396         3.009693         2.048569
 C        -1.946987         1.691083         2.657059
 C        -1.620780         1.185324         1.215531
 C        -0.048367         0.806929         1.054613
 C         0.231556         0.555973        -0.426833
 O        -0.215952         1.106396        -1.431500
 C        -1.884184         2.601011         0.648529
 H        -3.564055         4.363570        -0.572125
 H        -4.159973         2.417183         0.940709
 H        -2.167005         3.960347         2.459685
 H        -1.094520         1.718726         3.276364
 H        -2.727820         1.234947         3.353628
 H        -2.093366         0.370185         0.785131
 H         0.409831         1.815784         1.329922
 H         0.210285        -0.020746         1.690383
 H         1.176321        -0.046736        -0.503495
 H        -1.200632         3.178075         0.062590
