19
Iteration:  1849
 O        -3.198733         4.521482         0.374347
 C        -3.120851         3.189411         0.838174
 C        -2.288152         3.012144         2.106618
 C        -2.228388         1.561863         2.507990
 C        -1.738706         1.113897         1.056927
 C        -0.445189         0.381852         1.034314
 C         0.154595         0.444757        -0.408542
 O        -0.029727         1.364729        -1.199617
 C        -1.769219         2.696901         0.746686
 H        -3.471471         4.490147        -0.545739
 H        -4.118228         2.683084         0.687603
 H        -2.206737         3.925853         2.665379
 H        -1.379513         1.395963         3.336128
 H        -3.071721         0.970072         2.919323
 H        -2.393187         0.474413         0.523140
 H         0.421606         0.632927         1.705060
 H        -0.713685        -0.692412         1.251267
 H         0.639148        -0.445158        -0.792657
 H        -1.143064         3.214269         0.037072
