19
Iteration:   680charge 0 multiplicity 1
 O        -3.276991         5.027247         1.418012
 C        -2.837928         3.846215         0.876324
 C        -3.278098         2.598650         1.595787
 C        -3.015165         1.392563         0.768845
 C        -1.474957         1.795979         0.622514
 C        -0.323605         0.838254         1.078124
 C         0.044665        -0.004791        -0.224017
 O         1.102900        -0.192765        -0.821792
 C        -1.764724         3.007143         1.454506
 H        -2.530766         5.483867         1.800111
 H        -2.994287         3.776142        -0.294737
 H        -4.062044         2.694751         2.301115
 H        -3.310020         0.475963         1.392351
 H        -3.592541         1.380165        -0.113382
 H        -1.235730         2.098843        -0.406988
 H         0.665121         1.379490         1.322576
 H        -0.586944         0.336573         2.036421
 H        -0.853710        -0.442771        -0.781773
 H        -1.207312         3.372416         2.344582
