19
Iteration:  1515charge 0 multiplicity 1
 O        -3.542559         4.745394         1.200811
 C        -3.130916         3.475903         0.783959
 C        -2.620070         2.626230         2.102139
 C        -2.462920         1.163651         1.746633
 C        -1.486844         1.771280         0.554060
 C         0.005844         1.423750         0.688135
 C         0.515824         0.336257        -0.309059
 O        -0.249941        -0.362211        -0.926633
 C        -1.686518         3.195240         1.062753
 H        -3.499770         5.224005         0.376998
 H        -3.653188         3.082538        -0.128004
 H        -2.983830         3.172108         3.021978
 H        -1.825108         0.646815         2.394635
 H        -3.344521         0.501501         1.458681
 H        -1.838236         1.493431        -0.521308
 H         0.765629         2.159746         0.288490
 H         0.364796         1.052399         1.683927
 H         1.614875         0.291532        -0.651049
 H        -0.880105         3.918904         1.347682
