19
Iteration:  4449charge 0 multiplicity 1
 O        -3.189989         4.970245         2.053062
 C        -2.570167         4.030682         1.171617
 C        -3.254739         2.797407         0.694159
 C        -2.352744         2.327170        -0.399042
 C        -1.165708         2.033486         0.723287
 C        -0.815264         0.528492         0.997035
 C        -0.070038        -0.043559        -0.200441
 O         0.670962        -1.023129        -0.245108
 C        -2.061718         2.729315         1.766198
 H        -2.519023         5.394888         2.676173
 H        -1.924820         4.638791         0.445661
 H        -4.348641         2.802521         0.861508
 H        -2.763629         1.358680        -0.731071
 H        -2.336287         3.045602        -1.316880
 H        -0.273411         2.567959         0.498110
 H        -0.159633         0.468179         1.929542
 H        -1.818728         0.160821         1.253782
 H        -0.199004         0.562085        -1.138299
 H        -2.172820         2.571591         2.799583
