19
Iteration:  3104
 O        -3.168588         4.657521         0.520577
 C        -3.096433         3.264493         0.918336
 C        -2.268967         3.037787         2.187870
 C        -2.246076         1.506644         2.540727
 C        -1.935254         1.101034         0.970602
 C        -0.632013         0.300812         0.800399
 C        -0.171589         0.416549        -0.635354
 O         0.537635         1.321032        -0.996738
 C        -1.863152         2.595266         0.681785
 H        -2.794449         4.645738        -0.348094
 H        -4.050552         2.816524         0.849825
 H        -1.823809         3.969468         2.745069
 H        -1.175230         1.339476         3.058955
 H        -2.923961         0.963243         3.207293
 H        -2.844651         0.704155         0.477619
 H         0.190805         0.846254         1.403101
 H        -0.715454        -0.806352         1.223761
 H        -0.607635        -0.176278        -1.511071
 H        -0.910722         3.005069         0.117149
