19
Iteration:  4547
 O        -3.019505         4.888197         2.006910
 C        -2.311498         4.104867         1.214297
 C        -3.224508         3.101630         0.662090
 C        -2.466088         2.141993        -0.362424
 C        -1.342440         1.800134         0.682677
 C        -0.968742         0.359666         1.087808
 C        -0.302713        -0.326594        -0.178108
 O         0.909251        -0.361340        -0.225394
 C        -2.155342         2.661269         1.662099
 H        -2.555628         5.157759         2.846224
 H        -1.580884         4.643054         0.569212
 H        -4.346428         3.167703         0.655732
 H        -3.125396         1.376280        -0.590804
 H        -2.041784         2.516970        -1.284710
 H        -0.409464         2.384483         0.322360
 H        -0.211001         0.397211         1.922263
 H        -1.780910        -0.277982         1.368900
 H        -0.857537        -0.878546        -1.034949
 H        -2.364503         2.555087         2.737347
