19
Iteration:  2488
 O        -3.932667         4.229244         0.681274
 C        -3.316890         3.025537         0.960512
 C        -2.212953         3.183804         1.893950
 C        -1.860254         1.846903         2.496968
 C        -1.664254         1.314462         1.055774
 C        -0.353991         0.532217         0.927939
 C         0.299374         0.314100        -0.367071
 O         0.254870         1.150804        -1.259863
 C        -1.759540         2.803207         0.556203
 H        -4.388232         4.090433        -0.177829
 H        -4.066016         2.249835         1.082043
 H        -2.111789         4.194399         2.438136
 H        -0.869367         1.645862         3.146402
 H        -2.584729         1.391217         3.087510
 H        -2.487325         0.749832         0.620216
 H         0.473097         1.089300         1.449185
 H        -0.450198        -0.520892         1.244297
 H         0.835138        -0.729114        -0.335502
 H        -1.416131         3.141903        -0.418860
