19
Iteration:  2261
 O        -3.735912         4.304668         0.432949
 C        -3.155329         3.109335         0.928933
 C        -2.537326         3.049813         2.220032
 C        -2.103593         1.635095         2.566523
 C        -1.434295         1.384803         1.190622
 C        -0.101259         0.692454         0.946422
 C         0.397920         0.859247        -0.489528
 O        -0.221101         0.442611        -1.477644
 C        -1.670960         2.926180         0.796714
 H        -3.435382         4.286067        -0.531682
 H        -3.713757         2.101397         0.607762
 H        -2.603006         3.945640         2.778061
 H        -1.453088         1.679693         3.378335
 H        -2.965014         0.997884         2.865444
 H        -2.122708         0.939205         0.361483
 H         0.711486         0.885076         1.653101
 H        -0.396409        -0.451225         1.106005
 H         1.200239         1.706978        -0.671291
 H        -0.997681         3.669288         0.415063
