19
Iteration:  2290
 O        -3.706337         4.295378         0.322923
 C        -3.236834         3.024194         0.889470
 C        -2.422754         3.060752         2.201796
 C        -2.028240         1.599184         2.608409
 C        -1.474043         1.336278         1.185850
 C        -0.148832         0.685212         0.964869
 C         0.387284         0.784871        -0.460497
 O        -0.284053         0.661256        -1.447013
 C        -1.687850         2.907227         0.881122
 H        -3.434068         4.313998        -0.598355
 H        -3.781110         2.173403         0.621381
 H        -2.659191         3.942155         2.736820
 H        -1.096497         1.809321         3.331186
 H        -2.858819         1.049266         3.059317
 H        -2.051843         0.944079         0.391782
 H         0.677955         0.978061         1.587607
 H        -0.335304        -0.328961         1.092100
 H         1.452749         1.070606        -0.493696
 H        -1.082812         3.573676         0.168142
