19
Iteration:  1890
 O        -3.446758         4.645147         0.649163
 C        -3.172431         3.256319         0.789391
 C        -2.263170         3.022468         2.083950
 C        -2.350650         1.528110         2.509624
 C        -1.758580         1.192839         1.069170
 C        -0.324231         0.601957         1.002684
 C         0.145772         0.238116        -0.447346
 O         0.240432         1.060362        -1.346046
 C        -1.765355         2.702007         0.676885
 H        -3.093650         5.044885        -0.194323
 H        -3.924047         2.578860         0.442692
 H        -2.201969         3.829095         2.792894
 H        -1.669655         1.194871         3.256897
 H        -3.343221         1.219509         2.725567
 H        -2.466105         0.625959         0.410509
 H         0.346899         1.324769         1.556191
 H        -0.221088        -0.353455         1.543030
 H         0.453690        -0.867429        -0.533363
 H        -1.040637         3.240410         0.105663
