19
Iteration:   987charge 0 multiplicity 1
 O        -3.383966         4.864223         1.932431
 C        -3.244601         3.702725         1.036417
 C        -2.980619         2.382294         1.647014
 C        -2.606183         1.251099         0.649540
 C        -1.345463         2.106744         0.123581
 C         0.058293         1.518243         0.446708
 C         0.145745         0.216738        -0.394404
 O         0.404994        -0.883670         0.061140
 C        -1.827164         3.241119         1.066350
 H        -2.840251         5.539496         1.533174
 H        -3.464428         3.913534         0.011633
 H        -3.258141         2.155078         2.623070
 H        -2.180344         0.362516         1.258901
 H        -3.309282         0.853496        -0.094613
 H        -1.499661         2.356270        -0.992889
 H         0.696209         2.367159         0.494277
 H        -0.145074         1.236491         1.481235
 H        -0.020717         0.317204        -1.565807
 H        -1.036912         3.748822         1.699139
