19
Iteration:  1863charge 0 multiplicity 1
 O        -3.275241         4.562326         0.487799
 C        -3.133790         3.198171         0.833964
 C        -2.345703         3.038429         2.080985
 C        -2.261646         1.554293         2.515154
 C        -1.780397         1.175414         1.076762
 C        -0.402886         0.483171         0.955518
 C         0.084228         0.387841        -0.396485
 O         0.070484         1.268903        -1.233068
 C        -1.678552         2.581977         0.704589
 H        -3.383175         4.614279        -0.499299
 H        -3.867984         2.402937         0.521561
 H        -2.090127         3.836473         2.816620
 H        -1.312039         1.431831         3.115742
 H        -3.216322         1.173261         2.985131
 H        -2.596883         0.734338         0.376784
 H         0.205928         1.092960         1.574200
 H        -0.307175        -0.542742         1.345162
 H         0.609376        -0.572090        -0.521789
 H        -0.867596         3.130558         0.133367
