19
Iteration:  4047charge 0 multiplicity 1
 O        -3.141482         4.985940         1.757961
 C        -2.672822         3.958885         0.868904
 C        -3.292881         2.618126         1.315827
 C        -2.819005         1.571850         0.400584
 C        -1.262222         1.820020         0.577002
 C        -0.524350         0.606138         1.155784
 C         0.062786        -0.320688         0.100101
 O         0.523842         0.062501        -1.010174
 C        -1.676958         2.979259         1.550426
 H        -2.560491         5.739878         1.757478
 H        -2.618952         4.142200        -0.233134
 H        -4.055686         2.546309         2.120161
 H        -3.166067         0.514266         0.554301
 H        -3.083339         1.825674        -0.668157
 H        -0.786131         2.128159        -0.401204
 H         0.332298         0.979944         1.762835
 H        -1.216405         0.060952         1.832948
 H         0.294529        -1.407822         0.397407
 H        -1.340742         3.494533         2.496148
