19
Iteration:  3078charge 0 multiplicity 1
 O        -3.165473         4.704995         0.601204
 C        -3.207136         3.303943         1.008355
 C        -2.274297         3.009964         2.111643
 C        -2.294866         1.485734         2.495393
 C        -1.846137         1.102091         1.078969
 C        -0.580642         0.420710         0.829271
 C        -0.227000         0.531442        -0.623961
 O         0.720653         1.111512        -1.114791
 C        -1.898405         2.595083         0.624863
 H        -3.041651         4.610148        -0.344824
 H        -4.240200         2.840620         0.841521
 H        -1.773951         3.746183         2.638084
 H        -1.757485         1.271123         3.300148
 H        -3.268995         1.016303         2.740689
 H        -2.697746         0.578933         0.711317
 H         0.271272         0.901659         1.453073
 H        -0.652295        -0.737425         1.157910
 H        -0.825057        -0.090838        -1.352376
 H        -1.253742         3.045225        -0.044813
