19
Iteration:  3084charge 0 multiplicity 1
 O        -3.153163         4.687492         0.557475
 C        -3.257192         3.326778         1.014949
 C        -2.269959         2.946868         2.097359
 C        -2.264371         1.509245         2.499345
 C        -1.888798         1.100341         1.090296
 C        -0.543927         0.381662         0.795833
 C        -0.243497         0.506538        -0.631439
 O         0.682396         1.159568        -1.069563
 C        -1.854834         2.607946         0.679633
 H        -2.945401         4.779967        -0.375214
 H        -4.177842         2.853582         0.750845
 H        -1.765452         3.785713         2.699588
 H        -1.429946         1.196592         3.362317
 H        -3.266930         1.139740         2.746136
 H        -2.725596         0.466003         0.601175
 H         0.148203         0.888121         1.395390
 H        -0.750293        -0.572750         1.104895
 H        -0.749262        -0.181421        -1.345270
 H        -1.235847         3.170624        -0.118449
