19
Iteration:   934charge 0 multiplicity 1
 O        -3.654347         4.719286         1.870415
 C        -2.958755         3.844997         1.020449
 C        -2.980727         2.501212         1.700780
 C        -2.756617         1.416842         0.579208
 C        -1.384706         2.181737         0.127158
 C         0.000536         1.377703         0.211841
 C        -0.038398         0.016184        -0.275124
 O         0.715062        -0.862285         0.057421
 C        -1.609929         3.199121         1.276619
 H        -3.241998         5.578673         1.890108
 H        -3.400083         3.692561        -0.043645
 H        -3.395229         2.431006         2.668254
 H        -2.578559         0.406930         0.840504
 H        -3.465837         1.450602        -0.201811
 H        -1.465311         2.781385        -0.793930
 H         0.668680         2.200881        -0.072667
 H         0.103371         1.274204         1.340070
 H        -0.926522        -0.076287        -0.894436
 H        -0.837859         3.655262         1.975926
