19
Iteration:  3346
 O        -3.354692         4.896635         1.161194
 C        -3.126319         3.525041         0.863501
 C        -2.648929         2.847514         2.148747
 C        -2.514530         1.240946         1.962476
 C        -1.560728         1.530723         0.742887
 C        -0.141914         0.875092         0.855862
 C         0.463543         0.390562        -0.479535
 O        -0.145347        -0.079787        -1.404586
 C        -1.664596         3.074075         1.049785
 H        -2.759174         5.502780         0.614814
 H        -3.900157         3.178711         0.125138
 H        -2.954003         3.440671         3.072188
 H        -2.012988         0.613203         2.670837
 H        -3.424975         0.738137         1.479044
 H        -1.990276         1.372363        -0.214227
 H         0.520249         1.508164         1.517864
 H        -0.282489        -0.011508         1.425003
 H         1.607619         0.573535        -0.420443
 H        -0.818664         3.800847         1.079359
