19
Iteration:  2835
 O        -3.616431         4.696808         1.006252
 C        -3.426527         3.258062         0.979413
 C        -2.591397         2.934255         2.223716
 C        -2.094721         1.449566         2.284192
 C        -1.652863         1.534243         0.831399
 C        -0.131081         1.135913         0.608697
 C         0.142327         0.720372        -0.808396
 O         0.672693        -0.351955        -1.003926
 C        -2.011364         2.968922         0.779875
 H        -3.654753         4.841513         0.010181
 H        -4.385579         2.796030         0.687789
 H        -2.320852         3.681965         2.897501
 H        -1.346849         1.292588         3.029341
 H        -2.939280         0.694986         2.576025
 H        -2.330593         0.896842         0.177805
 H         0.386178         2.116222         1.038312
 H         0.046277         0.364660         1.235304
 H         0.043404         1.487381        -1.628146
 H        -1.525346         3.871713         0.342506
