19
Iteration:   938
 O        -3.610341         4.701787         1.858049
 C        -2.944360         3.814470         1.017967
 C        -2.994968         2.470595         1.663160
 C        -2.746240         1.405304         0.625129
 C        -1.388047         2.184423         0.111623
 C         0.010426         1.428083         0.244989
 C        -0.020000         0.032174        -0.302492
 O         0.681895        -0.861895         0.066497
 C        -1.638700         3.242027         1.285039
 H        -3.201183         5.611620         1.840356
 H        -3.455835         3.793287         0.048226
 H        -3.381346         2.337180         2.687768
 H        -2.624204         0.333493         0.835250
 H        -3.511457         1.513504        -0.229145
 H        -1.582807         2.758533        -0.786754
 H         0.764487         2.210245        -0.031942
 H         0.102238         1.192713         1.326327
 H        -0.978703        -0.235617        -0.924923
 H        -0.922500         3.683778         1.941999
