19
Iteration:    13charge 0 multiplicity 1
 O        -3.408288         4.844584         1.751330
 C        -2.777290         3.911893         0.971250
 C        -3.206796         2.566205         0.912790
 C        -2.333564         1.911648        -0.112945
 C        -1.057098         2.175027         0.754672
 C        -0.308304         0.877912         1.155135
 C         0.258536         0.173334        -0.011400
 O        -0.004902        -0.938247        -0.524630
 C        -1.850289         2.952957         1.751054
 H        -4.169309         4.415506         2.217735
 H        -2.362105         4.340771         0.042157
 H        -3.923677         2.118100         1.529321
 H        -2.497139         0.797774        -0.291653
 H        -2.219536         2.380694        -1.084527
 H        -0.299041         2.799959         0.288925
 H         0.638362         1.363468         1.528708
 H        -0.757128         0.230516         1.916176
 H         1.069580         0.801976        -0.462065
 H        -1.904291         2.991794         2.862914
