19
Iteration:   129charge 0 multiplicity 1
 O        -3.213840         4.971464         1.852664
 C        -2.714101         3.950095         0.945083
 C        -3.279452         2.431210         0.943761
 C        -2.512823         1.497836        -0.032433
 C        -1.115096         2.147470         0.507390
 C        -0.135540         1.042196         1.242814
 C         0.502339         0.201746         0.095673
 O        -0.154119        -0.661960        -0.525711
 C        -2.013290         2.844858         1.583282
 H        -4.173527         4.865416         2.142163
 H        -2.334875         4.399154         0.035629
 H        -4.188706         2.145113         1.377114
 H        -2.609156         0.479484         0.371853
 H        -2.737389         1.502307        -1.273680
 H        -0.530452         2.711050        -0.236674
 H         0.608059         1.507995         2.013377
 H        -0.832227         0.356194         1.796014
 H         1.493206         0.424325        -0.327074
 H        -1.918726         2.854608         2.666114
