19
Iteration:  3924charge 0 multiplicity 1
 O        -2.977151         5.112715         1.538299
 C        -2.489978         3.916940         0.870455
 C        -3.365846         2.709297         1.445443
 C        -3.133138         1.359685         0.688086
 C        -1.663465         1.670101         0.642592
 C        -0.521455         0.664170         1.030571
 C        -0.018854        -0.132787        -0.276764
 O         1.005153         0.134803        -0.842783
 C        -1.792476         2.811819         1.662526
 H        -2.206983         5.644893         1.620817
 H        -2.229608         4.052124        -0.168714
 H        -4.268730         2.864409         2.099378
 H        -3.280905         0.476110         1.215772
 H        -3.716461         1.138973        -0.146547
 H        -1.121905         2.081125        -0.279318
 H         0.309811         1.371961         1.232798
 H        -0.552157         0.013568         1.930684
 H        -0.650682        -0.990384        -0.695917
 H        -1.201877         3.004004         2.516078
