19
Iteration:  1434
 O        -3.760334         4.627165         1.538024
 C        -3.156812         3.497723         0.922778
 C        -2.548571         2.596059         1.986719
 C        -2.261258         1.303727         1.330333
 C        -1.288761         2.030649         0.260187
 C         0.084644         1.542206         0.485522
 C         0.141097         0.004912         0.157794
 O        -0.118573        -0.515751        -0.889621
 C        -1.672584         3.364374         0.987665
 H        -3.777081         5.300365         0.832673
 H        -3.769450         3.006658         0.093212
 H        -2.644328         2.841936         3.027916
 H        -1.799910         0.425655         1.893934
 H        -3.092351         0.749734         0.911577
 H        -1.593189         2.036665        -0.856250
 H         0.797208         1.970361        -0.269085
 H         0.635528         1.768661         1.335340
 H         0.476258        -0.609001         1.118201
 H        -1.087162         4.226920         1.174009
