19
Iteration:   874charge 0 multiplicity 1
 O        -3.409645         4.794051         1.937454
 C        -3.180349         3.799540         0.986714
 C        -3.104014         2.492175         1.558154
 C        -2.710983         1.470081         0.569868
 C        -1.384762         2.214940         0.133109
 C        -0.083923         1.360775         0.393319
 C        -0.054429        -0.058472        -0.089640
 O         0.886531        -0.839642        -0.157855
 C        -1.721796         3.187942         1.258979
 H        -3.195060         5.695014         1.654267
 H        -3.586401         3.819541         0.018147
 H        -3.487102         2.095830         2.508646
 H        -2.694463         0.428729         1.090282
 H        -3.588073         1.413550        -0.178075
 H        -1.201317         2.519361        -0.961275
 H         0.775655         1.869617         0.034678
 H         0.125114         1.451748         1.430604
 H        -1.028186        -0.393317        -0.504383
 H        -1.168560         3.792799         1.947870
