19
Iteration:  2969charge 0 multiplicity 1
 O        -3.695493         4.822202         1.053914
 C        -3.397544         3.439472         1.099977
 C        -2.361442         3.095674         2.135063
 C        -2.230235         1.521602         2.428205
 C        -1.831936         1.346517         0.801283
 C        -0.496139         0.679852         0.568897
 C         0.033278         0.293077        -0.844556
 O         1.230373         0.173839        -1.060732
 C        -1.977689         2.970933         0.664962
 H        -3.628062         5.061986         0.121161
 H        -4.349780         2.877538         1.169720
 H        -2.064994         3.812810         2.982415
 H        -1.384234         1.357123         2.998530
 H        -3.201133         1.034930         2.760580
 H        -2.704050         0.775934         0.344623
 H         0.341586         1.313688         1.071425
 H        -0.569426        -0.261176         1.048865
 H        -0.747556        -0.133303        -1.486318
 H        -1.405706         3.663428         0.037753
