19
Iteration:   282
 O        -3.324904         4.807564         1.842576
 C        -2.772575         3.892331         0.909647
 C        -3.255056         2.453504         0.990505
 C        -2.477201         1.514786         0.057199
 C        -1.050913         2.048373         0.493597
 C        -0.086982         1.075125         1.158169
 C         0.457485         0.145326         0.202219
 O        -0.285561        -0.506085        -0.524333
 C        -1.799240         2.942822         1.498888
 H        -4.286118         4.880769         1.661451
 H        -2.730405         4.472744        -0.054948
 H        -4.183510         2.338974         1.586877
 H        -2.630319         0.504323         0.324484
 H        -2.638750         1.668973        -1.030471
 H        -0.550039         2.599476        -0.368584
 H         0.841994         1.616548         1.592821
 H        -0.712895         0.653076         1.989038
 H         1.564426         0.144056         0.124859
 H        -1.426765         3.008184         2.583775
