19
Iteration:   171
 O        -3.433990         4.742374         1.928118
 C        -2.759867         3.969061         0.902141
 C        -3.189728         2.482706         1.118572
 C        -2.704782         1.701062        -0.086013
 C        -1.123189         2.069582         0.414741
 C        -0.233086         1.029548         1.133452
 C         0.533666         0.051838         0.230689
 O        -0.006816        -0.742748        -0.528474
 C        -1.766050         3.047677         1.476700
 H        -3.307850         5.681638         1.741921
 H        -2.558947         4.551968        -0.044156
 H        -4.029893         2.539737         1.763413
 H        -2.760625         0.615908        -0.183122
 H        -3.154139         2.231436        -0.921158
 H        -0.593690         2.702277        -0.302683
 H         0.536070         1.562503         1.822650
 H        -0.813729         0.366504         1.838781
 H         1.685834        -0.022026         0.369867
 H        -1.367512         3.121555         2.460942
