19
Iteration:     1
 O        -3.432271         4.850794         1.863516
 C        -2.716083         3.983445         1.032368
 C        -3.188939         2.568654         0.875626
 C        -2.367611         1.843143        -0.193440
 C        -1.055360         2.165950         0.606130
 C        -0.322482         0.922973         1.131250
 C         0.333819         0.169714        -0.002248
 O        -0.006631        -0.917302        -0.394015
 C        -1.896469         2.892959         1.662876
 H        -3.812777         4.342433         2.587736
 H        -2.334986         4.539759         0.177789
 H        -4.165008         2.267127         1.240774
 H        -2.559611         0.768449        -0.235123
 H        -2.436652         2.248003        -1.208627
 H        -0.343946         2.814030         0.077920
 H         0.456686         1.237997         1.839314
 H        -1.016379         0.252930         1.647990
 H         1.170807         0.717885        -0.496091
 H        -1.709255         2.884712         2.731999
