19
Iteration:  4571
 O        -2.952018         5.003386         2.100556
 C        -2.417346         4.016398         1.181029
 C        -3.189628         2.806391         0.703916
 C        -2.383892         2.106693        -0.469450
 C        -1.239227         1.877820         0.634179
 C        -1.231115         0.400101         1.008737
 C        -0.345722        -0.343982        -0.075696
 O         0.880000        -0.205526        -0.198005
 C        -2.040511         2.634395         1.666216
 H        -2.147006         5.383156         2.540058
 H        -1.619275         4.513459         0.503576
 H        -4.280395         2.746390         0.756277
 H        -2.695072         1.109495        -0.817286
 H        -2.120728         2.717434        -1.354435
 H        -0.257387         2.357293         0.528960
 H        -0.695815         0.384206         1.956062
 H        -2.215610        -0.064766         1.118031
 H        -0.764331        -0.877636        -1.008560
 H        -2.177923         2.584075         2.791736
