19
Iteration:  3808charge 0 multiplicity 1
 O        -3.275328         4.943806         1.938307
 C        -2.831872         3.993780         1.065968
 C        -3.177383         2.631341         1.620834
 C        -2.961895         1.535113         0.511695
 C        -1.543246         1.908398         0.235054
 C        -0.404744         1.040354         0.662572
 C        -0.069317        -0.148925        -0.297493
 O         1.058495        -0.599565        -0.391533
 C        -1.620135         3.083765         1.253444
 H        -2.665775         5.664383         1.887316
 H        -3.304523         4.082203         0.035544
 H        -3.550718         2.559328         2.586994
 H        -3.166058         0.446337         0.908171
 H        -3.531655         1.450838        -0.457580
 H        -1.329249         2.349036        -0.696631
 H         0.566266         1.522759         0.891671
 H        -0.803263         0.545452         1.638819
 H        -1.047711        -0.524418        -0.654934
 H        -0.688287         3.451356         1.718540
