19
Iteration:  2523
 O        -3.954341         4.219446         0.507406
 C        -3.268446         3.089511         0.945186
 C        -2.223336         3.227282         2.033379
 C        -1.962768         1.802777         2.596091
 C        -1.612335         1.261152         1.182471
 C        -0.216274         0.553743         0.911228
 C         0.253851         0.370972        -0.434817
 O         0.140308         1.153116        -1.349845
 C        -1.716869         2.736373         0.641547
 H        -3.974059         4.241098        -0.469132
 H        -3.879285         2.236303         1.073562
 H        -2.006972         4.152461         2.522643
 H        -1.031756         1.690079         3.257767
 H        -2.865434         1.315901         2.996408
 H        -2.399250         0.667613         0.803855
 H         0.517290         0.895657         1.720937
 H        -0.278193        -0.460734         1.310125
 H         0.744474        -0.607429        -0.776764
 H        -1.187564         3.033507        -0.295887
