19
Iteration:  3111
 O        -3.173937         4.630933         0.510965
 C        -3.061246         3.272206         0.951182
 C        -2.310398         3.036571         2.199783
 C        -2.189285         1.521373         2.513318
 C        -1.941977         1.117459         1.028606
 C        -0.680899         0.254013         0.789638
 C        -0.181438         0.430432        -0.616555
 O         0.502018         1.381491        -0.998408
 C        -1.756477         2.566691         0.635251
 H        -2.820828         4.810106        -0.346854
 H        -4.026793         2.682394         0.729731
 H        -1.763199         3.829629         2.611128
 H        -1.298842         1.389613         2.958707
 H        -3.003236         0.930513         2.990022
 H        -2.811931         0.654084         0.579364
 H        -0.055194         0.880357         1.477554
 H        -0.945469        -0.758941         1.233408
 H        -0.384748        -0.389920        -1.344933
 H        -0.988602         3.025902         0.075381
