19
Iteration:  1319
 O        -3.564784         4.780866         1.805053
 C        -3.088699         3.710945         0.973378
 C        -2.791596         2.504660         1.872206
 C        -2.598930         1.218583         1.079950
 C        -1.583996         1.857904         0.191425
 C        -0.030470         1.549059         0.329353
 C         0.561910         0.223151         0.060167
 O         0.061095        -0.676661        -0.537205
 C        -1.703833         3.212390         0.922645
 H        -3.374826         5.553031         1.232285
 H        -3.783178         3.495631         0.206502
 H        -2.650533         2.654216         2.906558
 H        -2.181671         0.407464         1.631502
 H        -3.379820         0.748030         0.393488
 H        -1.714047         1.730614        -0.861139
 H         0.585475         2.185292        -0.233405
 H         0.260150         1.934288         1.342538
 H         1.560084         0.046838         0.360010
 H        -0.776395         3.827197         0.814086
