19
Iteration:  4977
 O        -3.687021         4.528883         1.832034
 C        -2.474373         4.022094         1.265657
 C        -2.635413         2.871356         0.304405
 C        -1.145461         2.587939        -0.216549
 C        -0.731158         2.061891         1.133564
 C        -0.580126         0.580404         1.305796
 C        -0.677854        -0.528013         0.221430
 O        -0.509127        -0.266810        -0.978634
 C        -2.139055         2.575274         1.745925
 H        -3.369395         4.747652         2.750119
 H        -1.669572         4.685390         1.134905
 H        -3.486252         2.785325        -0.335621
 H        -1.051677         1.887611        -1.103371
 H        -0.591071         3.448615        -0.536866
 H         0.137722         2.526103         1.356073
 H         0.351626         0.511994         1.932780
 H        -1.321944         0.260176         1.954513
 H        -0.895307        -1.546621         0.694666
 H        -2.721831         2.030514         2.578449
