19
Iteration:  1576charge 0 multiplicity 1
 O        -3.581628         4.800217         1.056365
 C        -3.189855         3.415203         0.884264
 C        -2.716721         2.793066         2.134651
 C        -2.430439         1.345594         1.879193
 C        -1.417697         1.615176         0.762704
 C         0.026204         1.143828         0.817874
 C         0.475801         0.498193        -0.492227
 O        -0.139519        -0.366495        -1.126855
 C        -1.718503         3.120572         0.981498
 H        -3.088619         5.373072         0.464674
 H        -3.862619         3.039153         0.084705
 H        -2.946541         3.210977         3.116673
 H        -1.973355         0.768569         2.763061
 H        -3.164301         0.608951         1.513553
 H        -1.785725         1.434097        -0.237157
 H         0.785646         1.860402         1.167689
 H         0.252049         0.358262         1.567701
 H         1.569510         0.872716        -0.693384
 H        -0.939665         3.937630         0.951981
