19
Iteration:  4711charge 0 multiplicity 1
 O        -2.807472         5.009002         2.122926
 C        -2.322131         3.942234         1.331242
 C        -3.266266         3.083497         0.423136
 C        -2.305577         2.319047        -0.533399
 C        -1.372440         1.822220         0.569151
 C        -1.061407         0.283821         1.018176
 C         0.100916        -0.368797         0.466567
 O         0.585135        -0.203374        -0.626283
 C        -2.489637         2.480895         1.703440
 H        -2.322054         4.888469         2.955807
 H        -1.466624         4.261490         0.864591
 H        -4.334938         2.994101         0.358673
 H        -2.713857         1.479443        -0.998185
 H        -1.769898         2.924244        -1.272902
 H        -0.307471         2.301835         0.605872
 H        -0.806185         0.396279         2.121087
 H        -1.908178        -0.361017         1.026473
 H         0.515051        -1.189919         1.170498
 H        -3.033133         2.259102         2.700679
