19
Iteration:  1588charge 0 multiplicity 1
 O        -3.611478         4.765777         1.065397
 C        -3.129016         3.503719         0.865717
 C        -2.688862         2.771406         2.091944
 C        -2.448895         1.265109         1.948993
 C        -1.512104         1.654621         0.721350
 C        -0.007365         1.111465         0.821355
 C         0.447455         0.483026        -0.442055
 O        -0.068280        -0.315895        -1.172181
 C        -1.654385         3.156499         0.963478
 H        -3.191509         5.276168         0.345718
 H        -3.586285         2.638668         0.278494
 H        -2.859346         3.319998         3.053253
 H        -1.780147         1.117407         2.881149
 H        -3.466388         0.741199         1.950571
 H        -1.963976         1.162677        -0.161816
 H         0.605378         2.025343         1.031825
 H        -0.048723         0.283411         1.506211
 H         1.579857         0.546170        -0.780639
 H        -0.837776         3.926877         1.137178
