19
Iteration:   602charge 0 multiplicity 1
 O        -3.145402         4.931595         1.586015
 C        -2.861232         3.765433         0.736289
 C        -3.296553         2.597960         1.531149
 C        -2.967260         1.387290         0.618154
 C        -1.424042         1.768333         0.612811
 C        -0.223785         0.900867         1.157586
 C        -0.050084        -0.109155        -0.024431
 O         0.894792         0.024174        -0.810176
 C        -1.754145         2.939834         1.407095
 H        -3.019408         5.768864         1.108668
 H        -3.027338         4.029511        -0.389823
 H        -4.057685         2.688525         2.374301
 H        -3.230064         0.303310         0.769360
 H        -3.440201         1.597364        -0.297850
 H        -0.852613         2.029583        -0.327411
 H         0.675537         1.584493         1.189862
 H        -0.388153         0.434280         2.117773
 H        -0.917361        -0.752809        -0.285957
 H        -1.102819         3.609755         2.080157
