19
Iteration:  2692
 O        -3.716614         4.462648         0.662855
 C        -3.304748         3.134451         0.902792
 C        -2.383364         3.108012         2.118049
 C        -2.141578         1.635692         2.577158
 C        -1.546924         1.330894         1.143051
 C        -0.140504         0.799796         0.968598
 C         0.453352         0.835473        -0.545412
 O        -0.003891         0.255420        -1.510024
 C        -1.843627         2.800500         0.702192
 H        -3.731879         4.710142        -0.306257
 H        -3.980772         2.373516         0.704404
 H        -2.483764         4.097433         2.685862
 H        -1.361012         1.546075         3.225459
 H        -3.105636         1.206335         3.142833
 H        -2.219269         0.612207         0.732774
 H         0.700250         1.396594         1.564583
 H         0.054500        -0.238565         1.243513
 H         1.484988         1.287698        -0.629469
 H        -1.281716         3.376570        -0.041962
