19
Iteration:  1194charge 0 multiplicity 1
 O        -3.801540         4.773518         1.451485
 C        -3.067595         3.593184         0.935080
 C        -2.849054         2.504244         1.864382
 C        -2.293016         1.170302         1.122168
 C        -1.210478         2.064998         0.446768
 C         0.208727         1.444196         0.535486
 C         0.355772         0.320345        -0.482873
 O        -0.295484        -0.728545        -0.424378
 C        -1.629169         3.270383         1.370913
 H        -3.691420         5.372842         0.669469
 H        -3.225529         3.317102        -0.109945
 H        -3.395575         2.421828         2.811953
 H        -1.768768         0.408527         1.811981
 H        -3.019261         0.662090         0.449358
 H        -1.432271         2.357372        -0.652088
 H         0.851218         2.227565         0.049979
 H         0.599469         1.168126         1.534801
 H         1.230346         0.407936        -1.147617
 H        -1.131365         4.095525         1.872761
