19
Iteration:  3616
 O        -3.276411         4.686373         1.967110
 C        -3.027675         3.676794         1.013138
 C        -2.845975         2.284577         1.684091
 C        -2.525786         1.213812         0.682550
 C        -1.377537         2.143275         0.029891
 C         0.052375         1.591916         0.477103
 C         0.313130         0.254015        -0.290809
 O        -0.356803        -0.724311        -0.081034
 C        -1.685772         3.257410         1.086630
 H        -2.842618         5.483183         1.675673
 H        -3.560484         3.788455         0.058296
 H        -2.791428         2.231195         2.753155
 H        -2.093616         0.326919         0.964372
 H        -3.389486         0.918427        -0.021867
 H        -1.304780         2.401663        -1.010175
 H         0.850088         2.318215         0.379208
 H        -0.076370         1.414954         1.499820
 H         1.095896         0.284113        -1.086883
 H        -0.934849         3.942657         1.663191
