19
Iteration:  2955
 O        -3.762007         4.819634         1.104198
 C        -3.400861         3.430105         1.134052
 C        -2.372022         3.082538         2.167176
 C        -2.174977         1.607027         2.264356
 C        -1.844774         1.426338         0.830829
 C        -0.472602         0.729579         0.523501
 C         0.017805         0.231089        -0.823329
 O         1.213905         0.102299        -1.018785
 C        -1.960281         2.930705         0.707180
 H        -3.946178         5.102278         0.193869
 H        -4.148122         2.633126         0.773410
 H        -2.044123         4.017875         2.753160
 H        -1.458860         1.251347         2.951660
 H        -3.040335         1.031695         2.551470
 H        -2.619081         0.937478         0.199406
 H         0.404931         1.229088         0.966647
 H        -0.459175        -0.288742         1.240785
 H        -0.664283         0.152399        -1.700325
 H        -1.064317         3.537261         0.251244
