19
Iteration:  1648
 O        -3.516833         4.819915         0.946646
 C        -3.312637         3.395923         0.946036
 C        -2.508474         2.939918         2.183267
 C        -2.383120         1.386692         2.061990
 C        -1.554113         1.517358         0.758514
 C        -0.098408         0.886371         0.936308
 C         0.570719         0.292513        -0.335287
 O        -0.002377         0.080442        -1.392367
 C        -1.865771         3.036429         0.819185
 H        -3.445962         5.173823         0.060647
 H        -4.171031         2.847537         0.601481
 H        -2.437555         3.557403         3.067388
 H        -1.883589         0.928265         2.898382
 H        -3.398040         0.990673         2.023998
 H        -1.966091         0.866325        -0.005334
 H         0.710252         1.519888         1.288849
 H        -0.061011         0.111012         1.691056
 H         1.627705        -0.035354        -0.149481
 H        -1.181759         3.774347         0.387777
