19
Iteration:  3404
 O        -3.442934         4.897367         1.218878
 C        -3.087638         3.588941         0.972496
 C        -2.760592         2.721057         2.159729
 C        -2.603445         1.296706         1.750753
 C        -1.479948         1.653185         0.733962
 C        -0.012317         1.108082         0.779938
 C         0.454045         0.141656        -0.447502
 O        -0.156613        -0.220983        -1.383813
 C        -1.629289         3.172795         1.143552
 H        -3.373433         5.378662         0.412253
 H        -3.561096         3.164316         0.111658
 H        -2.796796         2.846340         3.215207
 H        -2.164797         0.668585         2.602386
 H        -3.434251         0.802611         1.433768
 H        -1.805208         1.622919        -0.255730
 H         0.726623         1.903269         0.570814
 H         0.354405         0.513698         1.620144
 H         1.549054        -0.293315        -0.377675
 H        -0.815071         3.974465         1.376669
