19
Iteration:  4063charge 0 multiplicity 1
 O        -3.149986         5.020406         1.798018
 C        -2.790068         3.958545         0.964506
 C        -3.223829         2.691150         1.325513
 C        -2.799547         1.610159         0.193458
 C        -1.301863         1.862364         0.577949
 C        -0.417224         0.625424         1.132510
 C         0.232302        -0.328646         0.186129
 O         0.398965        -0.058688        -1.005301
 C        -1.772094         2.953734         1.517581
 H        -2.362573         5.592498         1.876549
 H        -2.768008         4.369591        -0.044505
 H        -4.088062         2.608989         1.944244
 H        -3.108426         0.656224         0.579594
 H        -3.148217         1.619780        -0.826341
 H        -0.677460         2.329765        -0.240001
 H         0.404977         1.016533         1.734880
 H        -0.910671        -0.089048         1.786007
 H         0.393143        -1.380299         0.554094
 H        -1.166556         3.018631         2.386868
