19
Iteration:  2081
 O        -3.925420         4.727620         1.172182
 C        -3.374175         3.381490         1.090140
 C        -2.348682         3.104749         2.177907
 C        -2.169795         1.578323         2.269059
 C        -1.791115         1.520983         0.712053
 C        -0.272098         0.908632         0.607732
 C         0.210001         0.518001        -0.755150
 O         1.010924        -0.346904        -1.036547
 C        -1.948457         3.035009         0.630406
 H        -4.329898         4.954477         0.327967
 H        -4.178465         2.604391         0.927969
 H        -2.308061         3.964470         2.849384
 H        -1.287784         1.077975         2.807155
 H        -3.030383         1.084431         2.469013
 H        -2.569153         0.840852         0.215823
 H         0.477244         1.670229         1.075224
 H        -0.333907        -0.034128         1.167712
 H        -0.318552         1.023819        -1.657023
 H        -1.462274         3.741714         0.054304
