19
Iteration:   256charge 0 multiplicity 1
 O        -3.402382         4.901982         1.839567
 C        -2.797252         3.882528         0.933576
 C        -3.130146         2.395239         1.120641
 C        -2.572429         1.601160        -0.114316
 C        -1.142424         2.062801         0.430179
 C        -0.173672         1.046487         1.206390
 C         0.472665         0.103587         0.237116
 O        -0.168683        -0.586279        -0.517638
 C        -1.696123         3.009512         1.451770
 H        -4.026539         4.383296         2.369745
 H        -2.942314         4.390977        -0.036841
 H        -3.774396         2.090190         1.927008
 H        -2.742395         0.487408        -0.189541
 H        -2.843166         1.977100        -1.058524
 H        -0.525864         2.571647        -0.381222
 H         0.496139         1.572512         1.785513
 H        -0.821019         0.475704         1.821352
 H         1.610140         0.013949         0.357611
 H        -1.154187         3.352450         2.290367
