19
Iteration:   628
 O        -3.322640         5.040482         1.392216
 C        -2.829210         3.878207         0.964781
 C        -3.251748         2.602947         1.564053
 C        -2.884617         1.323230         0.640929
 C        -1.485907         1.871743         0.548673
 C        -0.372380         0.770058         1.088812
 C         0.019741        -0.127069        -0.098583
 O         0.983136        -0.035624        -0.849367
 C        -1.698559         3.014633         1.543665
 H        -2.686030         5.739261         1.171588
 H        -2.816558         3.916323        -0.094247
 H        -3.641784         2.531842         2.533469
 H        -2.973253         0.351046         1.213953
 H        -3.557247         1.107033        -0.278097
 H        -0.995199         2.163313        -0.470240
 H         0.525039         1.189775         1.499447
 H        -0.871545         0.159810         1.834236
 H        -0.681774        -0.942929        -0.305959
 H        -1.137461         3.306899         2.387062
