19
Iteration:  2246charge 0 multiplicity 1
 O        -3.751002         4.355744         0.512481
 C        -3.185466         3.090223         0.801136
 C        -2.426948         3.044984         2.153003
 C        -2.143062         1.595899         2.567130
 C        -1.506319         1.388695         1.099806
 C        -0.097775         0.738285         0.966605
 C         0.301062         0.958275        -0.502092
 O        -0.147145         0.329086        -1.434797
 C        -1.631123         2.890477         0.911571
 H        -3.777496         4.612675        -0.415275
 H        -3.828485         2.270640         0.482870
 H        -2.589934         3.862643         2.899334
 H        -1.154714         1.624811         3.265655
 H        -2.935339         0.912276         2.893891
 H        -2.205625         0.742557         0.504218
 H         0.618395         1.305488         1.550601
 H        -0.097414        -0.281955         1.106733
 H         1.198626         1.580435        -0.594511
 H        -0.927394         3.526976         0.263259
