19
Iteration:  2112charge 0 multiplicity 1
 O        -3.786892         4.699995         1.149135
 C        -3.458280         3.316098         1.180139
 C        -2.333767         3.065539         2.058419
 C        -2.115697         1.578217         2.191540
 C        -1.750345         1.452081         0.675786
 C        -0.219889         0.940274         0.670376
 C         0.324143         0.722626        -0.649335
 O         0.766056        -0.348980        -1.004588
 C        -2.062117         2.965747         0.528355
 H        -4.199687         4.902023         0.279340
 H        -4.308682         2.702967         1.162280
 H        -2.049437         3.920863         2.618362
 H        -1.340210         1.027346         2.859203
 H        -3.013602         1.021369         2.398702
 H        -2.451346         0.674904         0.291404
 H         0.358661         1.676974         1.248113
 H        -0.155909         0.091033         1.208775
 H         0.215894         1.614232        -1.256792
 H        -1.642799         3.846689         0.202614
