19
Iteration:  3575charge 0 multiplicity 1
 O        -3.463180         4.749705         1.877334
 C        -3.061406         3.672266         1.063604
 C        -2.876235         2.427516         1.841102
 C        -2.553480         1.314585         0.797385
 C        -1.316896         2.089415         0.149164
 C         0.195822         1.509493         0.384283
 C         0.494988         0.065435        -0.191256
 O        -0.403784        -0.679246        -0.383077
 C        -1.673275         3.260554         1.079063
 H        -2.907138         5.568397         1.670788
 H        -3.548502         3.630948         0.045658
 H        -3.067357         2.311949         2.864273
 H        -2.293482         0.379790         1.264265
 H        -3.443102         1.020604         0.151502
 H        -1.692348         2.334142        -0.950347
 H         0.974473         2.190560        -0.028903
 H         0.374348         1.362026         1.578004
 H         1.524298        -0.304479        -0.422762
 H        -0.913791         3.878700         1.669765
