19
Iteration:  4053
 O        -3.148150         4.972890         1.764786
 C        -2.743895         3.982255         0.905180
 C        -3.327574         2.671957         1.323767
 C        -2.788748         1.589358         0.335177
 C        -1.269180         1.803805         0.574216
 C        -0.469615         0.614706         1.123479
 C         0.135184        -0.338194         0.116055
 O         0.478227         0.029551        -0.992928
 C        -1.692111         2.986407         1.547163
 H        -2.413430         5.645938         1.722221
 H        -2.625906         4.184272        -0.159036
 H        -4.060262         2.626541         2.093881
 H        -3.137873         0.617717         0.602254
 H        -3.087300         1.846156        -0.722289
 H        -0.758568         2.099194        -0.327859
 H         0.403718         0.862648         1.785310
 H        -1.151444         0.067284         1.808517
 H         0.247400        -1.363081         0.482796
 H        -1.139099         3.253589         2.470313
