19
Iteration:   511
 O        -3.416195         4.934978         1.674628
 C        -2.939131         3.903440         0.925311
 C        -3.204555         2.529869         1.510510
 C        -2.869632         1.567399         0.387572
 C        -1.372871         1.892243         0.483527
 C        -0.163991         0.955018         1.046470
 C         0.261635        -0.302627         0.236952
 O         0.680158        -0.300426        -0.916467
 C        -1.721951         3.149474         1.343960
 H        -2.767872         5.625235         1.875758
 H        -3.184583         3.987772        -0.176411
 H        -3.778471         2.357112         2.383671
 H        -3.095845         0.570468         0.452553
 H        -3.468356         1.861623        -0.440095
 H        -1.024856         2.333449        -0.440376
 H         0.624655         1.611390         1.407636
 H        -0.667540         0.427544         1.952134
 H         0.080345        -1.257258         0.750756
 H        -1.123917         3.580547         2.097500
