19
Iteration:   733
 O        -3.129947         5.012295         1.673183
 C        -2.945486         3.784464         0.820846
 C        -3.314146         2.602820         1.603499
 C        -2.933057         1.370424         0.745216
 C        -1.514837         1.885808         0.431235
 C        -0.398024         0.951236         0.736000
 C        -0.020212        -0.014290        -0.281089
 O         1.166078        -0.292415        -0.477378
 C        -1.808000         2.967830         1.463829
 H        -3.176496         5.713676         1.019573
 H        -2.950671         3.843412        -0.304297
 H        -3.977107         2.719426         2.402555
 H        -2.772947         0.638767         1.580028
 H        -3.665367         1.029143         0.073779
 H        -1.373822         2.332818        -0.522443
 H         0.621591         1.468201         0.832212
 H        -0.479960         0.436990         1.776362
 H        -0.753351        -0.323924        -1.042930
 H        -1.133488         3.630914         2.043799
