19
Iteration:   824
 O        -3.341734         4.824552         1.849330
 C        -3.081238         3.787572         0.985747
 C        -3.033509         2.511773         1.633412
 C        -2.808061         1.398979         0.601386
 C        -1.532036         2.103493         0.116261
 C        -0.285325         1.210736         0.732188
 C        -0.068250        -0.040539        -0.180560
 O         0.996316        -0.583374        -0.256590
 C        -1.708712         3.190464         1.069174
 H        -2.535565         5.402269         1.928975
 H        -3.447137         3.920152        -0.099057
 H        -3.360649         2.446396         2.727226
 H        -2.412617         0.525362         1.079803
 H        -3.567161         1.090719        -0.090954
 H        -1.364827         2.367301        -0.882206
 H         0.643772         1.849688         0.932870
 H        -0.660862         0.978691         1.784287
 H        -0.882611        -0.353399        -0.906356
 H        -0.982108         3.542173         1.779346
