19
Iteration:  3048charge 0 multiplicity 1
 O        -3.246742         4.741281         0.763347
 C        -3.235328         3.289106         0.999256
 C        -2.196898         2.990438         2.044794
 C        -2.425689         1.539408         2.462968
 C        -1.966011         1.088359         0.984945
 C        -0.516131         0.562747         0.866860
 C        -0.157210         0.595636        -0.613667
 O         0.879120         0.831465        -1.216054
 C        -1.874669         2.628518         0.669712
 H        -3.776812         4.659566        -0.049458
 H        -4.150722         2.766625         0.778085
 H        -1.731078         3.689295         2.668352
 H        -1.742994         1.205415         3.320264
 H        -3.447843         1.320205         2.866755
 H        -2.805167         0.541344         0.530847
 H         0.263862         1.239811         1.390544
 H        -0.232669        -0.502655         1.203375
 H        -1.057685         0.163572        -1.152893
 H        -1.266386         3.045700        -0.114747
