19
Iteration:  2187
 O        -3.583873         4.547625         0.773342
 C        -3.450664         3.244035         1.093378
 C        -2.399142         2.965582         2.126203
 C        -2.185895         1.508611         2.373097
 C        -1.563957         1.356672         0.913203
 C        -0.036315         1.041411         0.899886
 C         0.352445         0.975651        -0.574311
 O         0.160549        -0.042471        -1.207644
 C        -1.977888         2.771396         0.556201
 H        -3.712400         4.816107        -0.133908
 H        -4.235054         2.587696         0.853140
 H        -2.126530         3.888266         2.606262
 H        -1.488734         1.170895         3.187208
 H        -3.128288         0.831309         2.506406
 H        -2.024195         0.567684         0.394363
 H         0.590377         1.816232         1.369835
 H         0.210931         0.116340         1.500011
 H         0.749026         1.893516        -1.045580
 H        -1.258109         3.455487         0.235500
