19
Iteration:  1600
 O        -3.631551         4.754697         1.054505
 C        -3.081721         3.454827         0.820794
 C        -2.638063         2.823921         2.119576
 C        -2.429846         1.310722         2.049441
 C        -1.569736         1.586190         0.683161
 C        -0.166057         1.107597         0.800391
 C         0.567984         0.417289        -0.434134
 O        -0.076108        -0.268368        -1.220260
 C        -1.638446         3.155019         1.020645
 H        -3.513805         5.347572         0.271738
 H        -3.719914         3.068555        -0.015644
 H        -2.688956         3.460996         3.032745
 H        -1.743754         0.834159         2.802473
 H        -3.303670         0.547061         2.019334
 H        -2.004283         1.291608        -0.313701
 H         0.589427         1.861508         1.195371
 H        -0.046771         0.446971         1.628303
 H         1.659782         0.825776        -0.513531
 H        -0.778402         3.850992         1.009296
