19
Iteration:  4633charge 0 multiplicity 1
 O        -3.094602         4.862385         2.083864
 C        -2.311191         4.123660         1.215965
 C        -3.109501         3.015895         0.678604
 C        -2.444862         2.140485        -0.416167
 C        -1.252145         1.781322         0.566364
 C        -1.285093         0.283218         0.892094
 C        -0.269042        -0.488178         0.123610
 O         0.805288        -0.032599        -0.242583
 C        -1.817172         2.680535         1.593924
 H        -2.536030         5.254316         2.813657
 H        -1.632437         4.715069         0.720245
 H        -4.174610         2.914472         1.007880
 H        -3.096622         1.394462        -0.789924
 H        -2.102564         2.769646        -1.239492
 H        -0.164453         1.907656         0.136904
 H        -1.106487         0.116366         2.015140
 H        -2.200732        -0.243453         0.675420
 H        -0.698970        -1.457963        -0.069228
 H        -2.082526         2.509605         2.651258
