19
Iteration:  2963
 O        -3.732143         4.837709         1.078508
 C        -3.408601         3.416768         1.116794
 C        -2.367026         3.117920         2.128946
 C        -2.197429         1.545658         2.340905
 C        -1.859416         1.404131         0.808483
 C        -0.494668         0.706829         0.561166
 C         0.030714         0.254806        -0.834977
 O         1.229518         0.143252        -1.042280
 C        -1.957826         2.955852         0.705475
 H        -3.751863         5.074491         0.154923
 H        -4.312624         2.807858         1.085940
 H        -2.119924         3.849619         2.817201
 H        -1.345155         1.279418         3.159860
 H        -3.120499         1.059691         2.611995
 H        -2.510571         0.653710         0.354567
 H         0.329698         1.257337         0.914439
 H        -0.479870        -0.421066         1.051450
 H        -0.722217        -0.026804        -1.670674
 H        -1.173835         3.554606         0.207951
