19
Iteration:  2753charge 0 multiplicity 1
 O        -3.842806         4.507996         0.832948
 C        -3.324484         3.238082         1.031228
 C        -2.359172         3.123707         2.167960
 C        -2.115642         1.513213         2.319638
 C        -1.610424         1.457702         0.845768
 C        -0.148620         0.926691         0.802329
 C         0.452886         0.802979        -0.518479
 O         0.227569        -0.129592        -1.285810
 C        -1.879631         2.990432         0.747379
 H        -3.997773         4.493985        -0.150059
 H        -4.174742         2.424366         0.864810
 H        -2.300224         4.020633         2.915853
 H        -1.032693         1.356082         2.949815
 H        -2.955167         0.983935         2.715714
 H        -2.209104         0.779225         0.142094
 H         0.441891         1.531694         1.413211
 H        -0.325920        -0.159611         1.281015
 H         1.020781         1.705343        -0.840940
 H        -1.136473         3.762315         0.379011
