19
Iteration:  1423charge 0 multiplicity 1
 O        -3.742576         4.590951         1.559267
 C        -3.133652         3.491513         0.964925
 C        -2.513622         2.606126         1.960433
 C        -2.361653         1.192267         1.241636
 C        -1.339262         2.064732         0.316357
 C         0.151786         1.507541         0.371059
 C         0.140878         0.058508         0.249229
 O        -0.116384        -0.471982        -0.839620
 C        -1.620373         3.407750         0.956107
 H        -3.909367         5.348190         0.935003
 H        -3.650781         3.041467         0.043962
 H        -2.634017         2.814844         3.026690
 H        -1.681217         0.610929         1.932628
 H        -3.241978         0.794944         0.794285
 H        -1.666027         1.813717        -0.758975
 H         0.737271         1.978402        -0.452747
 H         0.364473         1.751172         1.346957
 H         0.188705        -0.663037         1.184023
 H        -0.992099         4.241020         0.927856
