19
Iteration:   164
 O        -3.374056         4.724868         1.945145
 C        -2.707759         3.940225         0.883334
 C        -3.205289         2.496463         1.089728
 C        -2.646796         1.673532        -0.046533
 C        -1.212075         2.094316         0.425808
 C        -0.241764         1.072709         1.134604
 C         0.531700         0.073548         0.212278
 O        -0.026441        -0.727866        -0.524716
 C        -1.802867         3.029420         1.542543
 H        -3.445502         5.611790         1.493072
 H        -2.417582         4.320848        -0.067680
 H        -4.192581         2.383965         1.560418
 H        -2.728920         0.611272        -0.210991
 H        -2.889240         2.205757        -1.122583
 H        -0.714596         2.473374        -0.492209
 H         0.470361         1.644062         1.744316
 H        -0.858702         0.453778         1.806711
 H         1.623745         0.072199         0.330552
 H        -1.353073         3.273655         2.561495
