19
Iteration:   266charge 0 multiplicity 1
 O        -3.372174         4.881070         1.852092
 C        -2.862007         3.931738         0.897300
 C        -3.088431         2.451607         1.080827
 C        -2.546370         1.585139        -0.092143
 C        -1.131248         2.022569         0.382201
 C        -0.138836         1.083270         1.256215
 C         0.504550         0.102327         0.231348
 O        -0.233881        -0.544816        -0.526540
 C        -1.744386         2.935029         1.483052
 H        -4.193446         4.551270         2.203199
 H        -2.558743         4.238099        -0.101691
 H        -3.675839         1.951822         1.851317
 H        -2.728660         0.513442         0.259313
 H        -2.948236         1.864858        -1.060952
 H        -0.417514         2.484046        -0.307217
 H         0.435302         1.752071         1.784506
 H        -0.619957         0.442768         1.973778
 H         1.644748        -0.001641         0.043572
 H        -1.494952         3.068775         2.498564
