19
Iteration:  1478
 O        -3.728137         4.785740         1.355008
 C        -3.261356         3.523806         0.915496
 C        -2.690684         2.666296         2.038455
 C        -2.298559         1.249605         1.534811
 C        -1.308690         1.901230         0.483277
 C         0.148613         1.404915         0.540562
 C         0.445723         0.010251        -0.066647
 O        -0.202847        -0.454337        -1.000523
 C        -1.748295         3.302418         1.042232
 H        -3.429863         5.505373         0.768949
 H        -3.763485         3.021934         0.025792
 H        -2.944174         2.928399         3.031150
 H        -1.645437         0.627515         2.239889
 H        -3.174615         0.633466         1.236329
 H        -1.728776         1.524584        -0.527347
 H         0.763620         2.087115        -0.133711
 H         0.538142         1.620622         1.507664
 H         1.452462        -0.361313         0.224233
 H        -0.964587         3.988251         1.297759
