19
Iteration:  3587
 O        -3.415979         4.791362         1.928283
 C        -3.112294         3.663030         1.063230
 C        -2.871372         2.370892         1.735495
 C        -2.566113         1.300155         0.746534
 C        -1.288442         2.008483         0.131150
 C         0.160203         1.500098         0.398471
 C         0.431668         0.203048        -0.218614
 O        -0.433625        -0.687973        -0.277606
 C        -1.605141         3.181677         1.111454
 H        -2.781705         5.471989         1.724799
 H        -3.756415         3.674269         0.142081
 H        -2.989318         2.237494         2.778140
 H        -2.254409         0.380222         1.304637
 H        -3.339323         1.101456        -0.026057
 H        -1.173642         2.174243        -1.048489
 H         0.814460         2.312782        -0.017981
 H         0.393484         1.635432         1.590719
 H         1.503046         0.118255        -0.540361
 H        -0.957347         4.076973         1.306308
