19
Iteration:  4830
 O        -3.252806         4.880471         1.860462
 C        -2.346957         4.002135         1.307846
 C        -2.848020         2.906939         0.299341
 C        -1.558210         2.377763        -0.294497
 C        -1.075873         1.943314         1.157724
 C        -0.989027         0.364450         1.248580
 C        -0.099885        -0.435744         0.186464
 O        -0.138903        -0.155315        -0.955988
 C        -2.419489         2.474790         1.784302
 H        -3.029309         5.204461         2.764570
 H        -1.249532         4.253627         1.192719
 H        -3.798425         2.809610        -0.228664
 H        -1.607759         1.526112        -0.915386
 H        -1.068866         3.266545        -0.821830
 H        -0.256851         2.406052         1.623907
 H        -0.510693         0.205749         2.236481
 H        -1.954604        -0.082484         1.342138
 H         0.537950        -1.232239         0.670007
 H        -3.080555         2.031144         2.590700
