19
Iteration:  4898
 O        -3.688764         4.488410         1.891362
 C        -2.350197         4.069566         1.510003
 C        -2.514934         3.267195         0.253490
 C        -1.412816         2.529942        -0.385693
 C        -0.883927         2.002186         0.993064
 C        -0.743695         0.536670         1.320181
 C        -0.470637        -0.511812         0.299078
 O        -0.313293        -0.452209        -0.938532
 C        -2.167593         2.591336         1.602499
 H        -3.553659         4.497991         2.893689
 H        -1.593815         4.799235         1.669685
 H        -3.587428         3.279739        -0.074568
 H        -1.600320         1.705655        -1.117328
 H        -0.735807         3.323585        -0.672495
 H        -0.016771         2.509068         1.173869
 H         0.075525         0.412235         2.092209
 H        -1.577433         0.102233         1.808556
 H        -0.502301        -1.487375         0.766175
 H        -2.695719         2.036492         2.304803
