19
Iteration:  3659charge 0 multiplicity 1
 O        -3.494283         4.709013         2.059105
 C        -3.049719         3.790954         1.104069
 C        -2.793607         2.388119         1.657890
 C        -2.630803         1.336888         0.505478
 C        -1.246454         2.256346         0.112624
 C         0.090510         1.450176         0.386302
 C         0.140751         0.162909        -0.408364
 O        -0.031025        -0.994691         0.064961
 C        -1.617497         3.298578         1.080660
 H        -3.317234         5.575885         1.764075
 H        -3.455072         3.996177         0.124821
 H        -2.793560         2.136568         2.687023
 H        -2.580369         0.394857         0.895523
 H        -3.558883         1.406844        -0.125697
 H        -1.164873         2.579353        -0.838801
 H         0.824698         2.198910         0.115979
 H         0.240226         1.267474         1.359464
 H         0.043509         0.310058        -1.534449
 H        -0.884776         4.052052         1.555895
