19
Iteration:  2936
 O        -3.786751         4.722654         1.143021
 C        -3.303561         3.395206         1.069635
 C        -2.355677         3.060056         2.152005
 C        -2.199158         1.545167         2.281656
 C        -1.843190         1.524218         0.686406
 C        -0.476913         0.786113         0.593978
 C         0.011749         0.322918        -0.770640
 O         1.152968        -0.030585        -0.996988
 C        -1.887443         3.098111         0.669654
 H        -4.254391         4.901253         0.341976
 H        -4.110416         2.655527         0.993652
 H        -2.203086         3.791826         3.075991
 H        -1.353976         1.343057         2.906267
 H        -3.035116         0.900806         2.767516
 H        -2.435048         0.817369         0.048956
 H         0.375425         1.450955         1.008082
 H        -0.429926        -0.077962         1.047250
 H        -0.744503         0.129699        -1.567265
 H        -1.317804         3.831809         0.039306
