19
Iteration:  1773
 O        -3.235287         4.516102         0.417867
 C        -3.142431         3.155895         0.824447
 C        -2.215565         3.004200         2.103647
 C        -2.210351         1.598154         2.567587
 C        -1.837483         1.143754         1.078308
 C        -0.571662         0.367048         0.960125
 C         0.290745         0.651799        -0.300751
 O        -0.109071         1.215304        -1.306907
 C        -1.682279         2.621905         0.743997
 H        -3.006792         4.503257        -0.531384
 H        -4.113706         2.645237         0.560638
 H        -2.091974         3.885970         2.674294
 H        -1.331810         1.152095         3.161502
 H        -3.181557         1.207546         2.865377
 H        -2.668611         0.731066         0.377751
 H         0.043657         0.614769         1.792527
 H        -0.462858        -0.712172         0.953704
 H         1.440592         0.373938        -0.232619
 H        -1.021084         3.013466         0.042700
