19
Iteration:  2498
 O        -3.947498         4.201071         0.657765
 C        -3.302869         3.017539         0.951738
 C        -2.147283         3.189937         1.940915
 C        -1.941767         1.831428         2.571537
 C        -1.604086         1.327497         1.062581
 C        -0.357839         0.487969         0.981571
 C         0.224939         0.350361        -0.407609
 O         0.259224         1.149826        -1.311862
 C        -1.766948         2.804024         0.502328
 H        -4.332258         4.166022        -0.271266
 H        -3.901712         2.022925         0.960267
 H        -1.964201         4.221579         2.442150
 H        -0.870044         1.855869         3.122208
 H        -2.740723         1.435177         3.074341
 H        -2.483834         0.749048         0.647256
 H         0.382228         0.929530         1.609280
 H        -0.467203        -0.386610         1.664235
 H         0.956193        -0.459459        -0.632048
 H        -1.151871         3.368172        -0.221087
