19
Iteration:  3251charge 0 multiplicity 1
 O        -3.109157         4.879456         0.881607
 C        -3.143082         3.427140         0.967489
 C        -2.391047         2.939391         2.120468
 C        -2.554922         1.363005         2.350332
 C        -1.810453         1.130292         0.819255
 C        -0.428344         0.555312         0.920322
 C         0.397173         0.529883        -0.354553
 O         0.043512         0.719924        -1.475525
 C        -1.805883         2.685090         0.729300
 H        -2.811805         5.175163         0.001328
 H        -4.083216         3.007201         0.758432
 H        -2.037532         3.671469         2.906138
 H        -1.878763         1.072580         3.273844
 H        -3.590212         1.033783         2.382636
 H        -2.492981         0.522290         0.178705
 H         0.261192         1.046927         1.587028
 H        -0.275522        -0.504160         1.088022
 H         1.521918         0.263246        -0.100228
 H        -1.051788         3.181421        -0.034675
