19
Iteration:  2814charge 0 multiplicity 1
 O        -3.712058         4.656899         0.995746
 C        -3.345484         3.282262         1.011220
 C        -2.493080         2.923456         2.144681
 C        -2.146036         1.470998         2.269480
 C        -1.595685         1.422761         0.798402
 C        -0.138729         1.154445         0.704935
 C         0.213819         0.795457        -0.670394
 O         0.502837        -0.316598        -1.055471
 C        -1.912505         2.996088         0.699998
 H        -3.977105         4.877370         0.083418
 H        -4.125234         2.647975         0.665742
 H        -2.443304         3.564327         2.982400
 H        -1.464956         1.332381         3.006658
 H        -2.873514         0.626917         2.627569
 H        -2.144705         0.798729         0.061912
 H         0.497728         2.122618         1.045095
 H        -0.037031         0.325285         1.399205
 H        -0.148071         1.576748        -1.386230
 H        -1.243012         3.717915         0.157639
