19
Iteration:  4946charge 0 multiplicity 1
 O        -3.647902         4.394109         1.995247
 C        -2.436611         4.076391         1.291321
 C        -2.671294         2.992217         0.240629
 C        -1.151295         2.715241        -0.348494
 C        -0.739622         2.076430         1.049951
 C        -0.746547         0.575591         1.449770
 C        -0.688021        -0.501171         0.238309
 O        -0.409250        -0.421448        -0.931807
 C        -2.100428         2.595912         1.548025
 H        -3.497763         4.292938         2.942019
 H        -1.669715         4.910893         1.178960
 H        -3.573210         2.872582        -0.307866
 H        -1.152896         2.040000        -1.278972
 H        -0.575306         3.684049        -0.572510
 H         0.203351         2.594171         1.321159
 H         0.229494         0.469465         1.999316
 H        -1.523751         0.274457         2.189748
 H        -0.692995        -1.489098         0.749371
 H        -2.779313         1.995457         2.334603
