19
Iteration:  3600
 O        -3.341778         4.759593         1.949402
 C        -3.142482         3.702586         1.043581
 C        -2.735921         2.390410         1.691015
 C        -2.506055         1.193165         0.652401
 C        -1.315018         2.027061         0.180227
 C         0.075214         1.582207         0.439700
 C         0.360202         0.280348        -0.213083
 O        -0.407211        -0.702604        -0.194792
 C        -1.668949         3.187067         1.049529
 H        -2.705278         5.481421         1.691764
 H        -3.739646         3.726090         0.124833
 H        -3.122091         2.206483         2.726799
 H        -2.325633         0.126835         1.098165
 H        -3.273102         1.056890        -0.069054
 H        -1.489663         2.298397        -0.893168
 H         0.817251         2.290950         0.001974
 H         0.350411         1.323234         1.539543
 H         1.240276         0.144480        -0.811200
 H        -0.919415         3.650680         1.636132
