19
Iteration:  1509charge 0 multiplicity 1
 O        -3.564791         4.728690         1.231209
 C        -3.116912         3.487620         0.790429
 C        -2.658715         2.628961         2.078083
 C        -2.486601         1.187549         1.717736
 C        -1.411568         1.788619         0.544795
 C         0.013341         1.416040         0.618150
 C         0.508415         0.293622        -0.275760
 O        -0.249301        -0.375123        -0.934760
 C        -1.692455         3.221523         1.058405
 H        -3.559640         5.376513         0.493873
 H        -3.552595         2.965019        -0.049529
 H        -2.920429         3.022867         3.030972
 H        -1.765023         0.555451         2.379578
 H        -3.404892         0.631441         1.688198
 H        -1.796617         1.454240        -0.373349
 H         0.676132         2.256815         0.378876
 H         0.431921         1.244796         1.631244
 H         1.613673         0.222956        -0.364835
 H        -0.910771         3.906184         1.256758
