19
Iteration:  2630charge 0 multiplicity 1
 O        -3.549452         4.342297         0.454866
 C        -3.198116         3.083288         0.958099
 C        -2.234490         3.029321         2.028076
 C        -2.112183         1.589683         2.459738
 C        -1.524015         1.206214         1.152841
 C        -0.052365         0.860010         1.065382
 C         0.381206         0.866300        -0.384860
 O        -0.454608         0.775337        -1.268974
 C        -1.857308         2.600818         0.590342
 H        -3.644059         4.261024        -0.537004
 H        -4.050841         2.281794         0.794950
 H        -1.806577         3.897184         2.395406
 H        -1.359340         1.342199         3.331875
 H        -2.955773         1.000407         2.680954
 H        -1.958792         0.367632         0.507204
 H         0.339663         1.679186         1.560542
 H         0.135177        -0.096913         1.613434
 H         1.522001         0.871507        -0.547044
 H        -1.340207         3.297381        -0.041364
