19
Iteration:  1959charge 0 multiplicity 1
 O        -3.579400         4.744581         0.907140
 C        -3.268867         3.336092         0.931871
 C        -2.425208         2.984859         2.201748
 C        -2.345502         1.522655         2.270618
 C        -1.802903         1.320723         0.893151
 C        -0.257142         0.908549         0.824717
 C         0.085954         0.130314        -0.411906
 O         0.715423         0.458279        -1.398332
 C        -1.851509         2.926952         0.737009
 H        -3.973237         4.793568        -0.003331
 H        -4.075197         2.599514         0.578617
 H        -2.210529         3.751035         2.960718
 H        -1.518318         1.225584         3.069663
 H        -3.273223         1.082206         2.537840
 H        -2.223790         0.639180         0.211770
 H         0.437586         1.868646         0.734414
 H         0.075084         0.312738         1.767137
 H        -0.380031        -0.878007        -0.401062
 H        -0.965579         3.411142         0.210887
