19
Iteration:  2882
 O        -3.832938         4.740819         1.077497
 C        -3.434367         3.410353         1.069738
 C        -2.398644         3.051717         2.195238
 C        -2.226405         1.472179         2.262233
 C        -1.690731         1.520953         0.775895
 C        -0.280825         1.041142         0.582985
 C         0.125148         0.499677        -0.761094
 O         0.968931        -0.330638        -1.088687
 C        -1.932382         2.993244         0.781370
 H        -3.772199         5.047541         0.180890
 H        -4.177663         2.713949         0.754673
 H        -2.144105         3.757192         3.136784
 H        -1.620791         1.057231         3.079625
 H        -3.265167         0.898580         2.348254
 H        -2.254754         0.778099         0.181580
 H         0.410342         1.985312         0.764581
 H         0.163537         0.235991         1.365749
 H        -0.494643         0.890834        -1.624873
 H        -1.272710         3.785999         0.304890
