19
Iteration:  1316charge 0 multiplicity 1
 O        -3.548073         4.780546         1.795349
 C        -3.104078         3.701396         0.965669
 C        -2.777007         2.500943         1.867773
 C        -2.603960         1.217472         1.064414
 C        -1.599041         1.891745         0.205250
 C        -0.039116         1.519571         0.354106
 C         0.574456         0.243217         0.037447
 O         0.050355        -0.670629        -0.527176
 C        -1.682332         3.188975         0.921519
 H        -3.445970         5.616738         1.257829
 H        -3.845116         3.411941         0.219310
 H        -2.673460         2.722129         2.922766
 H        -2.220920         0.428771         1.681301
 H        -3.449309         0.732618         0.430151
 H        -1.761125         1.711763        -0.922204
 H         0.661907         2.225288        -0.279514
 H         0.255460         1.900187         1.395720
 H         1.673015         0.141879         0.321166
 H        -0.798085         3.759956         0.914994
