19
Iteration:  2041charge 0 multiplicity 1
 O        -3.826276         4.692142         0.999685
 C        -3.328454         3.347842         1.082160
 C        -2.472940         3.084271         2.300344
 C        -2.107062         1.526760         2.315746
 C        -1.732294         1.469295         0.755833
 C        -0.405756         0.973694         0.456239
 C        -0.011483         0.349827        -0.853201
 O         1.094157        -0.141193        -0.990266
 C        -1.907793         3.142584         0.829717
 H        -3.817796         4.986963         0.050443
 H        -4.078578         2.580194         0.771737
 H        -2.453706         3.869464         3.114840
 H        -1.392688         1.232660         3.013126
 H        -3.060128         0.813052         2.610030
 H        -2.402044         0.928221         0.122348
 H         0.346381         1.627095         0.794616
 H        -0.142983         0.096792         1.168144
 H        -0.842768         0.170791        -1.512865
 H        -1.157121         3.742940         0.265266
