19
Iteration:   864
 O        -3.381405         4.799258         1.938798
 C        -3.094261         3.801908         0.988059
 C        -3.085850         2.434378         1.605078
 C        -2.776102         1.406860         0.491586
 C        -1.400443         2.107404         0.169557
 C        -0.106484         1.395963         0.511244
 C        -0.050100        -0.013436        -0.048156
 O         0.867187        -0.790735        -0.197809
 C        -1.770662         3.266186         1.174642
 H        -3.012091         5.601153         1.565748
 H        -3.528886         4.004256         0.023880
 H        -3.490791         2.325191         2.637771
 H        -2.504876         0.392434         0.979146
 H        -3.460678         1.218778        -0.361335
 H        -1.435506         2.490102        -0.913752
 H         0.693372         1.801787        -0.081647
 H         0.154701         1.398202         1.558884
 H        -0.996914        -0.259498        -0.606247
 H        -1.087844         3.668403         1.879934
