19
Iteration:  1480charge 0 multiplicity 1
 O        -3.722193         4.781604         1.352508
 C        -3.263114         3.521415         0.910830
 C        -2.693272         2.676694         2.045020
 C        -2.305869         1.257485         1.534881
 C        -1.310768         1.891932         0.492047
 C         0.134921         1.415516         0.541444
 C         0.454372         0.020378        -0.074237
 O        -0.209296        -0.452221        -1.004152
 C        -1.737690         3.289314         1.044757
 H        -3.417857         5.462591         0.752627
 H        -3.745019         3.008362         0.010187
 H        -2.990098         2.966626         3.040076
 H        -1.709652         0.646242         2.199991
 H        -3.155126         0.575069         1.234039
 H        -1.779863         1.443467        -0.465583
 H         0.809932         2.098475        -0.097495
 H         0.574289         1.637881         1.520384
 H         1.505036        -0.352115         0.211196
 H        -0.882962         3.952038         1.284437
