19
Iteration:   484charge 0 multiplicity 1
 O        -3.397609         5.010102         1.735593
 C        -2.935108         3.924002         0.932841
 C        -3.148706         2.445133         1.442678
 C        -2.617263         1.421182         0.341807
 C        -1.240465         2.021225         0.387446
 C        -0.352810         0.991515         1.009286
 C         0.151693        -0.249029         0.268804
 O         0.537936        -0.277105        -0.884061
 C        -1.779119         3.032502         1.419082
 H        -3.053033         5.853146         1.397214
 H        -3.105390         4.041022        -0.119091
 H        -3.806712         2.244690         2.317180
 H        -2.467889         0.352752         0.790325
 H        -3.312251         1.135657        -0.507185
 H        -0.838898         2.570970        -0.488519
 H         0.680274         1.443226         1.264265
 H        -0.837830         0.687123         1.953843
 H         0.501852        -0.984130         1.035534
 H        -1.261211         3.481109         2.314658
