19
Iteration:   760charge 0 multiplicity 1
 O        -3.345034         5.111737         1.731780
 C        -2.948517         3.892079         0.947870
 C        -3.131634         2.562965         1.666149
 C        -3.044985         1.380727         0.665095
 C        -1.647711         1.850312         0.334457
 C        -0.348881         0.995710         0.673835
 C         0.132462        -0.128223        -0.226871
 O         1.277059        -0.488431        -0.488134
 C        -1.719510         3.132705         1.411618
 H        -3.448975         5.797015         1.044267
 H        -2.961191         3.978153        -0.157816
 H        -3.780554         2.671783         2.619297
 H        -3.200650         0.429151         1.135600
 H        -3.910925         1.500588        -0.072682
 H        -1.684453         2.184009        -0.735424
 H         0.559549         1.541773         0.909980
 H        -0.563310         0.420886         1.563478
 H        -0.730553        -0.510838        -0.823868
 H        -0.968985         3.365650         2.181036
