19
Iteration:  1569charge 0 multiplicity 1
 O        -3.548072         4.806730         1.064560
 C        -3.252718         3.434353         0.830830
 C        -2.759069         2.803369         2.164160
 C        -2.399477         1.260968         1.857356
 C        -1.374236         1.652914         0.739521
 C         0.012425         1.150232         0.835050
 C         0.556916         0.454521        -0.519087
 O        -0.172594        -0.341720        -1.074290
 C        -1.713951         3.138590         1.060880
 H        -3.018055         5.324005         0.461249
 H        -4.016458         2.952744         0.111144
 H        -2.847624         3.363530         3.133346
 H        -1.989936         0.678436         2.654969
 H        -3.347684         0.781564         1.382424
 H        -1.648420         1.078948        -0.237953
 H         0.794780         1.980463         0.949150
 H         0.118972         0.358526         1.566711
 H         1.408102         0.878765        -1.058455
 H        -1.104718         4.007339         0.763461
