19
Iteration:   775charge 0 multiplicity 1
 O        -3.447902         5.120621         1.762987
 C        -2.980478         3.960177         1.038911
 C        -3.127908         2.588302         1.712098
 C        -3.085712         1.482492         0.666942
 C        -1.521214         1.894342         0.257308
 C        -0.370674         0.966403         0.723819
 C         0.137701        -0.157021        -0.264936
 O         1.283512        -0.556887        -0.452090
 C        -1.704946         2.987845         1.270187
 H        -3.346065         5.837024         1.144610
 H        -3.442528         4.013148         0.087914
 H        -3.499014         2.461789         2.688345
 H        -3.010524         0.466293         1.101162
 H        -3.695697         1.492134        -0.242319
 H        -1.222020         2.272880        -0.801308
 H         0.383917         1.736257         0.736047
 H        -0.435184         0.758071         1.788412
 H        -0.663827        -0.710797        -0.866143
 H        -0.890572         3.564845         1.767829
