19
Iteration:  3978
 O        -2.922809         5.083593         1.470744
 C        -2.645870         3.809815         0.898118
 C        -3.334400         2.636545         1.440551
 C        -2.974104         1.405226         0.547855
 C        -1.475115         1.687318         0.727313
 C        -0.483302         0.575611         1.119327
 C        -0.047497        -0.101901        -0.132242
 O         0.753113         0.288810        -0.907369
 C        -1.745657         2.883449         1.633841
 H        -1.999115         5.324612         1.503826
 H        -2.589458         3.743404        -0.158222
 H        -4.104312         2.725616         2.206101
 H        -3.469689         0.525267         0.853086
 H        -3.231113         1.659671        -0.578480
 H        -1.067033         2.076606        -0.163601
 H         0.447033         0.873855         1.715221
 H        -1.046583        -0.227890         1.673413
 H        -0.704365        -1.041172        -0.248762
 H        -1.344507         3.243745         2.572141
