19
Iteration:  3791charge 0 multiplicity 1
 O        -3.236552         4.990343         2.038019
 C        -2.966388         3.954757         1.008365
 C        -3.115688         2.551490         1.540347
 C        -2.929699         1.449939         0.534709
 C        -1.464547         2.080702         0.191013
 C        -0.346934         1.077007         0.557738
 C        -0.101689        -0.179333        -0.246053
 O         1.016045        -0.693562        -0.328596
 C        -1.710290         3.144098         1.284643
 H        -2.571884         5.642001         1.888922
 H        -3.118886         4.323790         0.023350
 H        -3.798128         2.404118         2.428384
 H        -2.825507         0.530288         0.980062
 H        -3.685040         1.428717        -0.253993
 H        -1.367740         2.385146        -0.940922
 H         0.666964         1.572627         0.457334
 H        -0.395434         0.690674         1.547947
 H        -0.972911        -0.607571        -0.839990
 H        -1.076622         3.515739         2.145540
