19
Iteration:  3041charge 0 multiplicity 1
 O        -3.292240         4.739925         0.780842
 C        -3.190641         3.326360         1.002079
 C        -2.221180         2.984754         2.063551
 C        -2.387730         1.485808         2.458126
 C        -1.936614         1.127477         1.015197
 C        -0.562578         0.621038         0.870454
 C        -0.162548         0.570432        -0.639157
 O         0.909333         0.766446        -1.194293
 C        -1.907194         2.611926         0.623939
 H        -3.829667         4.878172         0.011478
 H        -4.131799         2.748359         0.973085
 H        -1.746804         3.846002         2.684919
 H        -1.611982         1.254215         3.333631
 H        -3.433661         1.233847         2.541670
 H        -2.620930         0.493076         0.356190
 H         0.049354         1.310785         1.345872
 H        -0.222943        -0.343869         1.091513
 H        -1.046560         0.187490        -1.206256
 H        -1.150970         3.174214        -0.067677
