19
Iteration:  4910
 O        -3.677260         4.419519         1.929406
 C        -2.376051         4.055082         1.478116
 C        -2.588815         3.211911         0.264358
 C        -1.308416         2.610163        -0.420160
 C        -0.763658         2.127092         1.002757
 C        -0.778098         0.583036         1.362581
 C        -0.548521        -0.579079         0.272984
 O        -0.339752        -0.447820        -0.906656
 C        -2.114837         2.577165         1.568231
 H        -3.740282         4.397820         2.916714
 H        -1.586380         4.708854         1.674827
 H        -3.600143         3.304058        -0.184745
 H        -1.748997         1.757261        -1.069782
 H        -0.656105         3.094280        -1.131782
 H         0.001293         2.602750         1.443555
 H         0.029533         0.338060         2.116296
 H        -1.670388         0.418174         1.870393
 H        -0.570768        -1.574368         0.711452
 H        -2.787450         1.960794         2.147498
