19
Iteration:  1007charge 0 multiplicity 1
 O        -3.443552         4.724980         1.891902
 C        -3.151033         3.762976         0.945522
 C        -2.906015         2.447265         1.700302
 C        -2.655223         1.290506         0.715080
 C        -1.416793         2.087432         0.147222
 C        -0.035404         1.453300         0.473588
 C         0.345203         0.282471        -0.383750
 O         0.270509        -0.851120         0.018451
 C        -1.750621         3.232029         1.074258
 H        -2.930071         5.550754         1.722955
 H        -3.813845         3.596654         0.139455
 H        -3.100016         2.332795         2.768805
 H        -2.409476         0.257580         1.268802
 H        -3.534896         1.199452        -0.003802
 H        -1.468103         2.069178        -0.984410
 H         0.776291         2.116989         0.060182
 H         0.050438         1.353553         1.554712
 H         0.638239         0.566836        -1.409146
 H        -0.928586         3.867159         1.495458
