19
Iteration:   768charge 0 multiplicity 1
 O        -3.415230         5.151033         1.754372
 C        -2.952943         3.891839         1.019633
 C        -3.083439         2.589908         1.683833
 C        -3.084835         1.434003         0.666601
 C        -1.593832         1.868994         0.283724
 C        -0.372457         0.951485         0.688470
 C         0.159347        -0.141753        -0.214458
 O         1.285603        -0.534300        -0.485991
 C        -1.721125         3.045932         1.333428
 H        -3.452437         5.888783         1.134711
 H        -3.106994         4.026289        -0.132807
 H        -3.707035         2.540497         2.590926
 H        -3.106799         0.391333         1.089445
 H        -3.745432         1.472484        -0.170159
 H        -1.471397         2.267009        -0.667027
 H         0.463345         1.775827         0.693461
 H        -0.593748         0.605558         1.789601
 H        -0.664937        -0.510041        -0.859987
 H        -1.034889         3.571316         1.933234
