19
Iteration:  2624charge 0 multiplicity 1
 O        -3.540782         4.352414         0.465887
 C        -3.234729         3.057166         0.913376
 C        -2.218880         3.046363         1.998130
 C        -2.133643         1.586340         2.499548
 C        -1.529575         1.156031         1.160448
 C        -0.015680         0.855660         1.109776
 C         0.371136         0.838571        -0.393321
 O        -0.453937         0.822820        -1.299086
 C        -1.864974         2.600778         0.582065
 H        -3.567454         4.262713        -0.516277
 H        -4.032553         2.348027         0.862588
 H        -1.803419         3.995613         2.428711
 H        -1.450333         1.437370         3.314564
 H        -2.990641         0.898427         2.847499
 H        -2.081777         0.395903         0.590983
 H         0.551691         1.788987         1.561266
 H         0.305828        -0.052463         1.618379
 H         1.438655         0.733776        -0.616846
 H        -1.290561         3.307505        -0.033706
