19
Iteration:  2710
 O        -3.733445         4.484042         0.737694
 C        -3.360680         3.161432         0.933957
 C        -2.481224         3.068660         2.128609
 C        -2.097915         1.714645         2.602492
 C        -1.614714         1.372367         1.022192
 C        -0.122801         0.824677         0.853427
 C         0.518390         0.752076        -0.527603
 O         0.103275         0.127894        -1.498932
 C        -1.877075         2.849254         0.740919
 H        -3.604904         4.667067        -0.244964
 H        -4.153465         2.293852         0.766842
 H        -2.319372         4.073228         2.734306
 H        -1.155810         1.903151         3.306262
 H        -2.808187         1.036378         2.860509
 H        -2.289065         0.725539         0.346579
 H         0.494418         1.268448         1.606273
 H        -0.180617        -0.165869         1.295352
 H         1.386599         1.432345        -0.716442
 H        -1.195104         3.647254         0.342773
