19
Iteration:  4625charge 0 multiplicity 1
 O        -3.094263         4.865242         2.080732
 C        -2.284267         4.074099         1.155200
 C        -3.134004         2.953305         0.704576
 C        -2.423144         2.202971        -0.385380
 C        -1.255914         1.791049         0.563969
 C        -1.309524         0.270994         0.908930
 C        -0.318000        -0.491293         0.065343
 O         0.793448        -0.010239        -0.195083
 C        -1.802569         2.706749         1.606953
 H        -2.453777         5.282586         2.732839
 H        -1.739375         4.740072         0.432884
 H        -4.112787         2.772354         1.104255
 H        -2.812639         1.337516        -0.866088
 H        -2.059411         2.857529        -1.167526
 H        -0.231527         2.215498         0.220228
 H        -0.976267        -0.023328         1.942809
 H        -2.326173        -0.156317         0.755861
 H        -0.524326        -1.559061        -0.211480
 H        -1.918847         2.359362         2.688548
