19
Iteration:  4945
 O        -3.652950         4.393679         2.000656
 C        -2.432764         4.079007         1.285683
 C        -2.667643         2.998022         0.238437
 C        -1.148472         2.703275        -0.352419
 C        -0.738892         2.078613         1.044900
 C        -0.750844         0.587977         1.441795
 C        -0.682576        -0.499960         0.242036
 O        -0.408484        -0.424172        -0.927073
 C        -2.095140         2.592389         1.552138
 H        -3.510913         4.285625         2.977473
 H        -1.681639         4.880506         1.232415
 H        -3.570510         2.906553        -0.313026
 H        -1.198014         2.046314        -1.306649
 H        -0.572233         3.647853        -0.532190
 H         0.137389         2.574591         1.323021
 H         0.225951         0.470796         2.013525
 H        -1.504696         0.304622         2.145124
 H        -0.712775        -1.522424         0.735174
 H        -2.785084         1.996746         2.321804
