19
Iteration:  3102charge 0 multiplicity 1
 O        -3.166375         4.661985         0.524868
 C        -3.109947         3.277255         0.910646
 C        -2.254178         3.034412         2.174789
 C        -2.239575         1.501179         2.550137
 C        -1.943642         1.098344         0.962424
 C        -0.619412         0.318665         0.803594
 C        -0.172887         0.407962        -0.646359
 O         0.551956         1.308892        -0.995727
 C        -1.879278         2.603873         0.697488
 H        -2.790755         4.595874        -0.346762
 H        -4.104683         2.808223         0.873023
 H        -1.884601         3.917373         2.758325
 H        -1.311869         1.341945         3.032019
 H        -2.927424         1.008552         3.247046
 H        -2.793164         0.700712         0.459444
 H         0.281609         0.821200         1.390836
 H        -0.656104        -0.838414         1.202388
 H        -0.691710        -0.152198        -1.491090
 H        -0.974615         2.998193         0.152997
