19
Iteration:   500
 O        -3.440001         5.013138         1.718415
 C        -3.038361         3.873778         0.921818
 C        -3.158473         2.531967         1.453593
 C        -2.841490         1.474116         0.387390
 C        -1.234321         1.985850         0.414504
 C        -0.275160         0.950708         1.062895
 C         0.247010        -0.237876         0.220197
 O         0.642402        -0.334716        -0.917092
 C        -1.697043         3.089352         1.430364
 H        -2.659711         5.604746         1.539085
 H        -3.136851         4.066289        -0.180682
 H        -3.724309         2.307430         2.333214
 H        -3.090931         0.508442         0.696960
 H        -3.188665         1.733300        -0.584916
 H        -0.857600         2.182386        -0.584343
 H         0.636974         1.513277         1.298864
 H        -0.625928         0.563798         2.085259
 H         0.170412        -1.164690         0.831000
 H        -1.103441         3.407342         2.262416
