19
Iteration:   739
 O        -3.174020         5.002430         1.663192
 C        -2.892573         3.809390         0.876152
 C        -3.290398         2.637285         1.614178
 C        -2.984986         1.378380         0.773242
 C        -1.501873         1.912683         0.456925
 C        -0.391350         0.973717         0.719479
 C         0.017894        -0.025797        -0.318940
 O         1.194538        -0.333696        -0.457772
 C        -1.812881         2.951942         1.387389
 H        -3.311878         5.778559         1.109497
 H        -3.008595         3.839684        -0.189709
 H        -3.940315         2.644174         2.557838
 H        -2.881067         0.533913         1.442404
 H        -3.695199         1.038954        -0.091510
 H        -1.369272         2.470124        -0.569159
 H         0.527895         1.497257         0.796717
 H        -0.585705         0.406511         1.591902
 H        -0.860134        -0.566655        -0.856676
 H        -1.214166         3.594590         2.047118
