19
Iteration:  4013
 O        -3.094313         5.030515         1.538886
 C        -2.570553         3.799985         0.959140
 C        -3.238264         2.612083         1.412937
 C        -2.868517         1.484401         0.496038
 C        -1.316697         1.790287         0.511045
 C        -0.551123         0.603397         1.130673
 C        -0.126814        -0.223308        -0.004710
 O         0.598018         0.308458        -0.853940
 C        -1.615749         2.846571         1.571422
 H        -2.486207         5.757905         1.445216
 H        -2.501495         3.943096        -0.108868
 H        -3.976504         2.527832         2.144242
 H        -3.111788         0.490449         0.862884
 H        -3.268448         1.605419        -0.563178
 H        -0.933746         2.179128        -0.444803
 H         0.270304         0.957400         1.799953
 H        -1.251403        -0.014580         1.763851
 H        -0.546826        -1.294954        -0.142792
 H        -1.102426         3.075890         2.573822
