19
Iteration:   872charge 0 multiplicity 1
 O        -3.396356         4.794163         1.934568
 C        -3.160928         3.792692         0.989003
 C        -3.111030         2.477978         1.569482
 C        -2.721827         1.451951         0.554725
 C        -1.387765         2.194173         0.135525
 C        -0.097683         1.364116         0.419258
 C        -0.052527        -0.027841        -0.064058
 O         0.882533        -0.835192        -0.174214
 C        -1.731169         3.210925         1.238660
 H        -3.163215         5.672928         1.664962
 H        -3.588909         3.839001         0.010983
 H        -3.465086         2.145272         2.492063
 H        -2.683738         0.479046         1.063989
 H        -3.607727         1.377667        -0.213670
 H        -1.219291         2.451610        -0.928886
 H         0.782325         1.826460        -0.027677
 H         0.129801         1.460401         1.463077
 H        -0.970406        -0.385988        -0.560471
 H        -1.139447         3.789647         1.999437
