19
Iteration:  2529charge 0 multiplicity 1
 O        -3.915561         4.268696         0.437185
 C        -3.310252         3.034538         1.004572
 C        -2.191074         3.220825         2.018447
 C        -1.978941         1.762044         2.620339
 C        -1.582637         1.281875         1.148071
 C        -0.205468         0.539353         0.938522
 C         0.250539         0.369666        -0.452683
 O         0.105472         1.172517        -1.374071
 C        -1.730074         2.723155         0.687091
 H        -3.942003         4.289383        -0.507987
 H        -3.933912         2.019590         0.956731
 H        -2.041053         4.175161         2.654469
 H        -1.153252         1.935349         3.351472
 H        -2.818525         1.305558         3.229680
 H        -2.332348         0.454360         0.768282
 H         0.533973         1.081204         1.523825
 H        -0.298606        -0.463521         1.437155
 H         0.820236        -0.547458        -0.651949
 H        -1.237229         3.140100        -0.182786
