19
Iteration:   398charge 0 multiplicity 1
 O        -3.448829         4.824745         1.580066
 C        -2.801010         3.844025         0.835022
 C        -3.124446         2.394060         1.247529
 C        -2.353175         1.343965         0.265223
 C        -1.040647         2.128135         0.611544
 C        -0.163107         1.036541         1.173091
 C         0.298254         0.051157         0.219304
 O        -0.247571        -0.277993        -0.825689
 C        -1.814301         3.037819         1.536292
 H        -2.771021         5.283384         2.073618
 H        -2.555447         4.151699        -0.150464
 H        -3.744074         2.130267         2.106482
 H        -2.378375         0.293259         0.666055
 H        -2.718692         1.362303        -0.783250
 H        -0.642484         2.661927        -0.218802
 H         0.714960         1.438519         1.680639
 H        -0.812284         0.557102         2.027121
 H         1.243450        -0.550235         0.534093
 H        -1.558090         3.484536         2.539400
