19
Iteration:  1645charge 0 multiplicity 1
 O        -3.519566         4.818918         0.954526
 C        -3.302080         3.388823         0.945055
 C        -2.503245         2.935681         2.182210
 C        -2.388008         1.373884         2.063394
 C        -1.550543         1.561333         0.747868
 C        -0.091021         0.888466         0.960545
 C         0.576499         0.286791        -0.359598
 O        -0.006113         0.055999        -1.395667
 C        -1.871511         3.029826         0.814235
 H        -3.496987         5.196951         0.053391
 H        -4.132460         2.862551         0.479453
 H        -2.417151         3.542122         3.065125
 H        -1.979733         0.975069         2.960532
 H        -3.428803         0.963537         2.085486
 H        -1.984722         0.983694        -0.006693
 H         0.702566         1.591268         1.257569
 H        -0.088828         0.078060         1.649670
 H         1.669520         0.036592        -0.069784
 H        -1.208689         3.793473         0.511565
