19
Iteration:  2080charge 0 multiplicity 1
 O        -3.922945         4.722649         1.168482
 C        -3.376470         3.380444         1.089578
 C        -2.352701         3.105751         2.182910
 C        -2.172271         1.582087         2.272926
 C        -1.787381         1.510635         0.714159
 C        -0.282720         0.906821         0.603827
 C         0.208302         0.513486        -0.759633
 O         1.014930        -0.342732        -1.035833
 C        -1.947679         3.049959         0.635160
 H        -4.320719         4.954928         0.338859
 H        -4.133940         2.602911         0.930060
 H        -2.296711         3.953366         2.830007
 H        -1.264639         1.082737         2.835064
 H        -3.056374         1.096792         2.445135
 H        -2.579086         0.817491         0.227079
 H         0.462516         1.678104         1.038921
 H        -0.327018         0.000635         1.129055
 H        -0.312265         0.968092        -1.657248
 H        -1.418089         3.762086         0.087194
