19
Iteration:  2255charge 0 multiplicity 1
 O        -3.757047         4.333153         0.476815
 C        -3.174386         3.104886         0.868233
 C        -2.492456         3.073162         2.156631
 C        -2.146075         1.603834         2.565799
 C        -1.454730         1.393385         1.159222
 C        -0.101430         0.699778         0.930096
 C         0.344511         0.921880        -0.486858
 O        -0.183345         0.389089        -1.460025
 C        -1.626853         2.897413         0.837188
 H        -3.479450         4.238827        -0.432804
 H        -3.728487         2.300259         0.540640
 H        -2.710648         3.811876         3.036317
 H        -1.252876         1.535988         3.383189
 H        -2.928311         1.016484         3.094854
 H        -2.066398         0.917916         0.439774
 H         0.683265         1.036600         1.662473
 H        -0.220999        -0.313260         1.189162
 H         1.190816         1.551515        -0.680270
 H        -0.971060         3.615443         0.294988
