19
Iteration:  1484charge 0 multiplicity 1
 O        -3.712309         4.766353         1.348227
 C        -3.250093         3.513144         0.898102
 C        -2.705470         2.688825         2.053885
 C        -2.328558         1.273406         1.541790
 C        -1.337613         1.855369         0.500705
 C         0.112777         1.444841         0.541911
 C         0.471805         0.053939        -0.102372
 O        -0.216140        -0.446174        -0.999067
 C        -1.699996         3.259292         1.045137
 H        -3.369430         5.405842         0.667170
 H        -3.701759         3.056051         0.064164
 H        -3.051621         3.050537         3.072647
 H        -1.800656         0.659050         2.269863
 H        -3.055325         0.532761         1.188987
 H        -1.796233         1.453387        -0.347584
 H         0.819649         2.064894        -0.003874
 H         0.638872         1.586726         1.565891
 H         1.497780        -0.344863         0.163661
 H        -0.833427         3.928724         1.221880
