19
Iteration:  3699charge 0 multiplicity 1
 O        -3.548438         4.732960         2.043947
 C        -2.981858         3.817210         1.086647
 C        -2.825886         2.426267         1.623769
 C        -2.643018         1.479401         0.472808
 C        -1.264385         2.360431         0.169013
 C        -0.055920         1.361167         0.277226
 C        -0.165426        -0.024180        -0.473417
 O         0.371846        -1.007784         0.087185
 C        -1.608656         3.319777         1.280059
 H        -3.176876         5.642405         1.814245
 H        -3.322239         3.945752         0.041082
 H        -3.217461         2.186589         2.615158
 H        -2.250936         0.477688         0.839016
 H        -3.323601         1.336002        -0.343905
 H        -1.198643         3.055564        -0.797000
 H         0.983034         1.721727        -0.044052
 H         0.065791         1.083555         1.389477
 H        -0.625929        -0.233949        -1.394191
 H        -0.891597         3.862056         1.802270
