19
Iteration:  4889charge 0 multiplicity 1
 O        -3.636724         4.529428         1.895208
 C        -2.332252         4.102194         1.502174
 C        -2.608138         3.243950         0.246034
 C        -1.356387         2.532434        -0.386814
 C        -0.968355         1.960026         0.979383
 C        -0.705874         0.496773         1.284959
 C        -0.424727        -0.510774         0.261657
 O        -0.299570        -0.435422        -0.911816
 C        -2.212475         2.587364         1.711212
 H        -3.819083         4.690403         2.861683
 H        -1.613261         4.857113         1.616870
 H        -3.576903         3.255615        -0.289613
 H        -1.723905         1.791493        -1.176908
 H        -0.598162         3.158200        -0.903772
 H        -0.025044         2.362902         1.196782
 H         0.070904         0.405703         2.093262
 H        -1.539658        -0.012869         1.747320
 H        -0.338554        -1.472604         0.726510
 H        -2.900442         2.096606         2.416034
