19
Iteration:  1111
 O        -3.704488         4.676149         1.601141
 C        -3.060649         3.610172         0.891670
 C        -2.740264         2.458468         1.796944
 C        -2.369032         1.150299         1.001317
 C        -1.320838         2.015669         0.302866
 C         0.151642         1.506285         0.574018
 C         0.380833         0.364679        -0.376432
 O        -0.310284        -0.606951        -0.241935
 C        -1.602934         3.229973         1.133802
 H        -3.241234         5.495499         1.402480
 H        -3.553523         3.545680        -0.099398
 H        -3.284338         2.140131         2.777749
 H        -2.039715         0.483572         1.691841
 H        -3.102316         0.639697         0.374906
 H        -1.252259         2.131251        -0.763067
 H         0.948126         2.177307         0.355557
 H         0.182269         1.290693         1.661169
 H         0.923679         0.517996        -1.281999
 H        -0.958726         4.015154         1.473484
