19
Iteration:  3049charge 0 multiplicity 1
 O        -3.242690         4.736706         0.757549
 C        -3.237767         3.287243         0.999938
 C        -2.197932         2.987168         2.044669
 C        -2.433889         1.549907         2.460027
 C        -1.970414         1.085508         0.984577
 C        -0.498903         0.552308         0.866359
 C        -0.158357         0.595497        -0.611150
 O         0.872922         0.841846        -1.217245
 C        -1.874855         2.626964         0.674557
 H        -3.748959         4.668460        -0.043701
 H        -4.145524         2.782115         0.765481
 H        -1.717430         3.711061         2.694974
 H        -1.722363         1.167712         3.356770
 H        -3.427390         1.330271         2.906681
 H        -2.831832         0.529426         0.535962
 H         0.255963         1.197033         1.388680
 H        -0.283582        -0.458532         1.213522
 H        -1.042366         0.173912        -1.163703
 H        -1.247740         3.049846        -0.151566
