19
Iteration:  1516charge 0 multiplicity 1
 O        -3.540490         4.749244         1.194858
 C        -3.130984         3.471032         0.786603
 C        -2.620433         2.629828         2.103629
 C        -2.456241         1.159633         1.748199
 C        -1.500113         1.763612         0.552263
 C         0.011713         1.422221         0.695473
 C         0.514594         0.345366        -0.314103
 O        -0.251490        -0.362343        -0.926777
 C        -1.684651         3.189693         1.063289
 H        -3.491533         5.214599         0.364231
 H        -3.651501         3.112953        -0.097442
 H        -2.987696         3.182236         3.013829
 H        -1.839901         0.658821         2.411410
 H        -3.297871         0.513088         1.417985
 H        -1.821490         1.532787        -0.489345
 H         0.739082         2.150234         0.300330
 H         0.346795         1.031311         1.705910
 H         1.621302         0.309447        -0.674588
 H        -0.898781         3.908681         1.336258
