19
Iteration:  4835
 O        -3.295087         4.904615         1.877116
 C        -2.387307         3.965662         1.301195
 C        -2.763446         2.919666         0.316198
 C        -1.500798         2.404337        -0.296245
 C        -1.143411         1.972812         1.158260
 C        -0.926971         0.394947         1.258651
 C        -0.123993        -0.454440         0.204390
 O        -0.161752        -0.193328        -0.984106
 C        -2.431529         2.456369         1.775140
 H        -2.925169         5.051187         2.776825
 H        -1.432688         4.449134         1.146737
 H        -3.805199         2.924695        -0.068273
 H        -1.555954         1.544732        -1.036593
 H        -0.977775         3.138599        -0.863684
 H        -0.115860         2.371834         1.540850
 H        -0.440445         0.270710         2.245331
 H        -1.898650        -0.203433         1.326365
 H         0.490463        -1.364994         0.665327
 H        -3.038592         2.119956         2.572107
