19
Iteration:  2858charge 0 multiplicity 1
 O        -3.714625         4.733088         1.025965
 C        -3.426422         3.348162         1.106192
 C        -2.556813         2.988862         2.238323
 C        -2.252881         1.477789         2.321236
 C        -1.738241         1.516401         0.830521
 C        -0.124609         1.113104         0.569039
 C         0.172174         0.601974        -0.844900
 O         0.851954        -0.386543        -1.066531
 C        -1.970909         2.970717         0.717521
 H        -3.436049         4.894963         0.111388
 H        -4.251669         2.727275         0.737343
 H        -2.587042         3.660283         3.145439
 H        -1.382313         1.354391         2.896419
 H        -3.066806         0.768130         2.802146
 H        -2.322809         0.831038         0.161657
 H         0.388478         2.167020         0.759728
 H         0.280755         0.409372         1.268718
 H        -0.142527         1.239778        -1.722258
 H        -1.220427         3.778010         0.421671
