19
Iteration:   773charge 0 multiplicity 1
 O        -3.443117         5.132543         1.761548
 C        -2.969065         3.942411         1.035813
 C        -3.109281         2.588423         1.699816
 C        -3.090574         1.468156         0.677801
 C        -1.538434         1.887794         0.265649
 C        -0.371246         0.958266         0.720847
 C         0.145579        -0.150816        -0.250039
 O         1.285355        -0.553792        -0.463795
 C        -1.712137         2.992165         1.283005
 H        -3.385126         5.875192         1.130183
 H        -3.346039         4.031073         0.053620
 H        -3.589016         2.471875         2.703424
 H        -3.022365         0.476021         1.078261
 H        -3.712829         1.482412        -0.290586
 H        -1.255251         2.300929        -0.797428
 H         0.331190         1.736960         0.713165
 H        -0.476017         0.761875         1.743528
 H        -0.644904        -0.664882        -0.869572
 H        -0.922561         3.612471         1.808231
