19
Iteration:  1279charge 0 multiplicity 1
 O        -3.428622         4.827224         1.645159
 C        -3.241679         3.567515         1.029855
 C        -2.812316         2.488695         1.946039
 C        -2.506324         1.187603         1.015437
 C        -1.448600         1.997564         0.256177
 C        -0.007866         1.507464         0.569251
 C         0.554118         0.302286        -0.214633
 O        -0.025847        -0.704975        -0.473304
 C        -1.788855         3.202812         0.903532
 H        -3.341563         5.611278         1.076041
 H        -4.034913         3.233876         0.254049
 H        -2.897920         2.494805         3.048791
 H        -2.128146         0.313637         1.662103
 H        -3.330904         0.878247         0.466873
 H        -1.806745         2.010013        -0.805603
 H         0.767813         2.381701         0.455262
 H         0.133550         1.129405         1.581870
 H         1.654021         0.453483        -0.422435
 H        -1.061681         4.060850         1.087211
