19
Iteration:  1896charge 0 multiplicity 1
 O        -3.473060         4.676117         0.669974
 C        -3.185488         3.233272         0.837268
 C        -2.310025         3.028097         2.089766
 C        -2.354608         1.523397         2.449737
 C        -1.734825         1.202600         1.034679
 C        -0.269437         0.606941         0.966175
 C         0.134982         0.259912        -0.391297
 O         0.270551         1.002266        -1.359278
 C        -1.764176         2.725686         0.675132
 H        -3.016450         4.915981        -0.152940
 H        -4.140407         2.687952         0.525826
 H        -2.076677         3.875277         2.764312
 H        -1.708758         1.211664         3.347109
 H        -3.405582         1.235824         2.823325
 H        -2.497515         0.708296         0.366603
 H         0.492815         1.208590         1.445454
 H        -0.312270        -0.330455         1.543550
 H         0.319789        -0.821886        -0.458708
 H        -0.935692         3.122905         0.053796
