19
Iteration:  2383charge 0 multiplicity 1
 O        -3.635391         4.374588         0.463980
 C        -3.303610         3.116867         1.044068
 C        -2.174343         3.043855         2.020970
 C        -2.046358         1.620764         2.564502
 C        -1.646395         1.145201         1.111807
 C        -0.138390         0.939688         1.060151
 C         0.334807         0.503273        -0.354543
 O         0.002562         1.083273        -1.344681
 C        -2.045191         2.490788         0.465492
 H        -3.870757         4.058974        -0.452939
 H        -4.244881         2.445010         1.264747
 H        -1.613665         3.961848         2.452010
 H        -1.164732         1.567881         3.063130
 H        -2.875415         1.002920         2.965016
 H        -2.228815         0.169587         0.848787
 H         0.186805         1.906436         1.258987
 H         0.360638         0.230056         1.732111
 H         1.036216        -0.455811        -0.472457
 H        -1.565753         3.084835        -0.353736
