19
Iteration:  1386charge 0 multiplicity 1
 O        -3.634634         4.705348         1.672349
 C        -3.255747         3.549672         1.020289
 C        -2.573696         2.527805         1.904872
 C        -2.311619         1.173330         1.087464
 C        -1.372284         2.015433         0.176320
 C         0.138868         1.625906         0.285468
 C         0.137172         0.104592         0.295513
 O        -0.037019        -0.604863        -0.703549
 C        -1.715087         3.289710         0.927769
 H        -3.629261         5.494476         1.075644
 H        -3.874309         3.263455         0.205210
 H        -2.452867         2.643920         3.027539
 H        -1.790844         0.420670         1.762044
 H        -3.182725         0.605231         0.680165
 H        -1.671297         2.191542        -0.838856
 H         0.731323         2.160200        -0.427472
 H         0.500899         1.865295         1.334558
 H         0.293742        -0.338787         1.368695
 H        -1.088159         4.219373         1.151499
