19
Iteration:  2390charge 0 multiplicity 1
 O        -3.647209         4.353750         0.467988
 C        -3.257319         3.103542         1.035314
 C        -2.191146         3.100569         2.043649
 C        -2.026160         1.629800         2.530113
 C        -1.705252         1.104665         1.129730
 C        -0.143686         0.940895         1.001123
 C         0.320008         0.511644        -0.335789
 O         0.067279         1.083104        -1.391470
 C        -2.082094         2.477196         0.519896
 H        -3.909218         4.209038        -0.447244
 H        -4.053950         2.457260         1.232481
 H        -1.590141         3.945244         2.348444
 H        -1.083535         1.407089         3.275703
 H        -2.876176         1.151567         3.121541
 H        -2.327189         0.282894         0.875945
 H         0.347778         1.965837         1.205545
 H         0.051120         0.206341         1.786385
 H         0.999473        -0.341160        -0.272869
 H        -1.589731         2.927251        -0.279303
