19
Iteration:  3092
 O        -3.151935         4.663233         0.533970
 C        -3.224585         3.345167         0.954726
 C        -2.237137         2.958440         2.095794
 C        -2.232886         1.507740         2.545859
 C        -1.957905         1.101025         1.020245
 C        -0.554514         0.365032         0.795564
 C        -0.216585         0.423518        -0.668189
 O         0.630181         1.249691        -1.013827
 C        -1.867974         2.611252         0.743308
 H        -2.835264         4.742514        -0.393010
 H        -4.143001         2.791454         0.820855
 H        -1.962944         3.790898         2.802723
 H        -1.293341         1.264125         3.131648
 H        -3.170718         1.208819         3.029439
 H        -2.646915         0.509719         0.427740
 H         0.339410         0.845778         1.384868
 H        -0.698533        -0.803808         1.091855
 H        -0.899167        -0.231625        -1.311139
 H        -1.147873         3.163629         0.023905
