19
Iteration:   709
 O        -3.111564         5.067436         1.588502
 C        -2.867218         3.851020         0.844629
 C        -3.322276         2.519909         1.529621
 C        -2.936564         1.183910         0.763671
 C        -1.509398         1.828815         0.594592
 C        -0.362987         0.984051         0.946575
 C        -0.017733         0.143907        -0.278674
 O         1.081950        -0.258610        -0.617852
 C        -1.832419         2.993127         1.346355
 H        -2.573127         5.727261         1.079757
 H        -3.009441         3.854657        -0.212925
 H        -3.889198         2.569457         2.495069
 H        -3.009102         0.378770         1.493357
 H        -3.518251         0.976559        -0.160568
 H        -1.369622         2.202333        -0.452386
 H         0.596350         1.433804         1.259030
 H        -0.611268         0.261048         1.786809
 H        -0.895547        -0.242788        -0.831431
 H        -1.353682         3.435433         2.268166
