19
Iteration:  2950
 O        -3.775046         4.779935         1.124142
 C        -3.371564         3.439098         1.112759
 C        -2.377524         3.084021         2.196043
 C        -2.203612         1.614777         2.265897
 C        -1.808054         1.415557         0.790791
 C        -0.456010         0.739417         0.523654
 C         0.012445         0.252245        -0.818454
 O         1.202831         0.064203        -1.002342
 C        -1.944444         2.964181         0.678834
 H        -4.077868         5.049099         0.210759
 H        -4.041977         2.736387         0.705867
 H        -1.988140         3.843107         2.788588
 H        -1.241346         1.243355         2.922277
 H        -3.097655         1.013362         2.593739
 H        -2.712738         1.185879         0.176677
 H         0.367043         1.289884         1.005166
 H        -0.519455        -0.146121         1.277824
 H        -0.768176         0.183329        -1.653787
 H        -1.278922         3.583466         0.222942
