19
Iteration:  1994charge 0 multiplicity 1
 O        -3.660611         4.730857         0.994829
 C        -3.377081         3.347049         1.038418
 C        -2.530494         2.999089         2.154367
 C        -2.289870         1.582773         2.258990
 C        -1.665217         1.453507         0.897158
 C        -0.187419         0.961492         0.717861
 C        -0.036368         0.163143        -0.568398
 O         0.944989         0.169590        -1.301648
 C        -1.942351         2.979294         0.740365
 H        -3.621286         5.195321         0.132492
 H        -4.164738         2.583501         0.657529
 H        -2.325762         3.691351         2.924331
 H        -1.603074         1.201605         3.077339
 H        -3.230827         0.938382         2.342700
 H        -2.303596         0.759927         0.398364
 H         0.685665         1.697703         0.686748
 H         0.195990         0.132337         1.458518
 H        -0.878233        -0.485873        -0.771024
 H        -1.266519         3.647141         0.316929
