19
Iteration:  2839charge 0 multiplicity 1
 O        -3.614628         4.703239         1.001180
 C        -3.442767         3.260714         1.004808
 C        -2.607620         2.937672         2.204762
 C        -2.102561         1.486801         2.277480
 C        -1.629141         1.478947         0.824939
 C        -0.159860         1.148979         0.563928
 C         0.165834         0.712365        -0.807969
 O         0.698148        -0.357628        -1.004694
 C        -2.019503         2.982909         0.828555
 H        -3.601567         4.934858         0.080258
 H        -4.342343         2.787364         0.700548
 H        -2.311771         3.745786         2.992116
 H        -1.454504         1.243543         3.131479
 H        -2.843473         0.696370         2.541778
 H        -2.306074         0.935876         0.181042
 H         0.359968         2.074819         0.868181
 H        -0.020588         0.252143         1.364987
 H        -0.047888         1.454722        -1.615432
 H        -1.534443         3.822336         0.242857
