19
Iteration:   360charge 0 multiplicity 1
 O        -3.617991         4.839745         1.429362
 C        -2.719998         3.863170         0.927616
 C        -3.177640         2.460384         1.245499
 C        -2.456831         1.568695         0.193842
 C        -1.005138         2.038441         0.688174
 C         0.040639         1.043118         1.094293
 C         0.428593         0.022534         0.111711
 O        -0.353716        -0.417383        -0.732246
 C        -1.828058         2.911616         1.775630
 H        -3.188752         5.555038         1.970340
 H        -2.324886         4.084632        -0.104969
 H        -3.895304         2.362728         2.091629
 H        -2.584560         0.493592         0.287867
 H        -2.582978         1.854932        -0.881531
 H        -0.400673         2.667509        -0.077777
 H         1.017313         1.544485         1.480733
 H        -0.282368         0.372672         1.926110
 H         1.568244        -0.162596         0.116467
 H        -1.514545         3.153226         2.802286
