19
Iteration:  2438
 O        -3.808249         4.408105         0.598495
 C        -3.414942         3.095950         1.051758
 C        -2.252435         3.226311         2.014918
 C        -1.911942         1.846814         2.580568
 C        -1.661110         1.166849         1.119517
 C        -0.253960         0.660424         0.918975
 C         0.429730         0.359780        -0.445293
 O         0.348034         1.083790        -1.413545
 C        -2.111989         2.501017         0.567730
 H        -3.982636         4.310737        -0.383170
 H        -4.373627         2.488231         1.289229
 H        -1.862191         4.182517         2.379031
 H        -1.094402         1.668266         3.176665
 H        -2.726854         1.235210         3.135560
 H        -2.449687         0.347774         0.875038
 H         0.387922         1.326895         1.448236
 H        -0.272993        -0.347643         1.346828
 H         1.063083        -0.532502        -0.377413
 H        -1.536107         2.791260        -0.383933
