19
Iteration:  2594charge 0 multiplicity 1
 O        -3.515567         4.363871         0.461317
 C        -3.243559         3.000039         0.825682
 C        -2.352475         3.058536         2.029291
 C        -2.042957         1.649240         2.648766
 C        -1.539330         1.130042         1.271664
 C        -0.107622         0.884045         1.022457
 C         0.341611         0.651554        -0.433187
 O        -0.324119         1.039029        -1.367881
 C        -1.897873         2.500012         0.601350
 H        -3.468282         4.327535        -0.525431
 H        -4.026889         2.296608         0.606324
 H        -1.992947         4.092539         2.458468
 H        -1.277402         1.771350         3.358111
 H        -2.868195         0.922227         2.992436
 H        -2.243019         0.376576         0.968652
 H         0.588293         1.722599         1.292078
 H         0.443202         0.133760         1.655243
 H         1.239755        -0.026794        -0.661478
 H        -1.203774         3.072470        -0.066632
