19
Iteration:  4039
 O        -3.126675         4.995938         1.721410
 C        -2.590161         3.873833         0.856227
 C        -3.131327         2.601317         1.354023
 C        -2.849443         1.492626         0.396107
 C        -1.309780         1.856387         0.607656
 C        -0.629499         0.612341         1.196033
 C         0.015254        -0.260767         0.010791
 O         0.559886         0.103137        -0.974724
 C        -1.730042         2.997945         1.550575
 H        -2.670548         5.822517         1.685099
 H        -2.616946         4.229783        -0.197839
 H        -4.014358         2.518216         2.052223
 H        -3.129214         0.421430         0.650754
 H        -3.206271         1.628824        -0.556489
 H        -0.732076         2.256604        -0.336442
 H         0.218788         0.983366         1.714807
 H        -1.176931         0.006859         1.878885
 H         0.116860        -1.353618         0.295151
 H        -1.326221         3.420229         2.416921
