19
Iteration:  4059
 O        -3.148502         4.989867         1.774740
 C        -2.792763         3.948227         0.955485
 C        -3.269882         2.721178         1.323985
 C        -2.781168         1.606632         0.246623
 C        -1.294064         1.823564         0.584867
 C        -0.432744         0.620580         1.116485
 C         0.205101        -0.330233         0.134310
 O         0.427843        -0.018652        -0.979809
 C        -1.740955         2.981704         1.529535
 H        -2.362833         5.581852         1.781270
 H        -2.694691         4.347810        -0.097990
 H        -4.135717         2.644815         2.060378
 H        -3.140066         0.587424         0.638988
 H        -3.118633         1.735073        -0.771968
 H        -0.664025         2.237867        -0.307331
 H         0.418961         0.872375         1.759100
 H        -1.009467        -0.021985         1.795095
 H         0.270054        -1.411535         0.553192
 H        -1.070420         3.031048         2.381263
