19
Iteration:  2001charge 0 multiplicity 1
 O        -3.683910         4.720279         0.987449
 C        -3.392675         3.372709         1.038569
 C        -2.534924         3.042571         2.214319
 C        -2.225292         1.541400         2.270476
 C        -1.675233         1.443999         0.827439
 C        -0.154099         0.925799         0.703328
 C        -0.038557         0.179381        -0.601284
 O         0.962548         0.121368        -1.251301
 C        -1.945330         2.974050         0.751846
 H        -3.520600         5.073805         0.113193
 H        -4.200730         2.762436         0.681601
 H        -2.536554         3.723301         3.095069
 H        -1.437622         1.231589         3.030031
 H        -3.093647         0.974176         2.340427
 H        -2.510435         0.946098         0.188253
 H         0.477909         1.880444         0.735921
 H         0.083350         0.240956         1.496397
 H        -0.995227        -0.357129        -0.993798
 H        -1.434710         3.895789         0.260743
