19
Iteration:    25charge 0 multiplicity 1
 O        -3.443232         4.899029         1.692821
 C        -2.754450         3.930952         0.965361
 C        -3.193418         2.477144         1.024534
 C        -2.256609         1.892643        -0.073593
 C        -1.004905         2.151878         0.816334
 C        -0.249462         0.874365         1.236400
 C         0.223621         0.144373        -0.107037
 O        -0.017030        -0.916434        -0.596278
 C        -1.927161         2.979665         1.772511
 H        -4.398364         4.639015         1.718098
 H        -2.410279         4.313027        -0.032747
 H        -4.175723         2.106913         1.305682
 H        -2.454735         0.764339        -0.258687
 H        -2.368278         2.543616        -0.971945
 H        -0.282253         2.771970         0.311756
 H         0.710429         1.092915         1.828443
 H        -0.834892         0.238974         1.948230
 H         0.942613         0.803324        -0.666456
 H        -1.745227         3.161559         2.881849
