19
Iteration:   295
 O        -3.327309         4.739824         1.855082
 C        -2.710457         3.873058         0.844416
 C        -3.265465         2.480270         0.947611
 C        -2.428980         1.454414         0.083207
 C        -1.145342         2.135344         0.607095
 C        -0.068989         1.186663         1.173305
 C         0.418700         0.126760         0.124092
 O        -0.299892        -0.558157        -0.581809
 C        -1.833089         2.990016         1.608057
 H        -4.011322         5.207627         1.343683
 H        -2.315232         4.211473        -0.125340
 H        -4.188378         2.152178         1.512217
 H        -2.476792         0.371940         0.380581
 H        -2.648425         1.402655        -1.071282
 H        -0.639892         2.797151        -0.125532
 H         0.776650         1.765555         1.779412
 H        -0.458275         0.382211         1.934156
 H         1.482532        -0.113309         0.090494
 H        -1.422035         3.535003         2.480565
