19
Iteration:  1482
 O        -3.717447         4.775134         1.350879
 C        -3.260427         3.517738         0.904320
 C        -2.697506         2.683495         2.049148
 C        -2.314880         1.264737         1.537267
 C        -1.320305         1.876980         0.496364
 C         0.122701         1.428798         0.540464
 C         0.462707         0.034216        -0.085370
 O        -0.213657        -0.449770        -1.003895
 C        -1.722569         3.275278         1.045629
 H        -3.395277         5.433935         0.714901
 H        -3.719401         3.024519         0.032122
 H        -3.029049         3.010732         3.066863
 H        -1.769272         0.663575         2.198188
 H        -3.112399         0.540903         1.220274
 H        -1.797019         1.424058        -0.392454
 H         0.826928         2.085912        -0.050995
 H         0.615445         1.629943         1.550935
 H         1.522885        -0.349284         0.193030
 H        -0.834703         3.936767         1.261221
