19
Iteration:  4827charge 0 multiplicity 1
 O        -3.235665         4.872417         1.848662
 C        -2.332861         3.998296         1.318346
 C        -2.890687         2.904660         0.303874
 C        -1.584697         2.376937        -0.288267
 C        -1.056883         1.908231         1.150347
 C        -1.001384         0.354106         1.249247
 C        -0.097385        -0.418448         0.209090
 O        -0.124075        -0.137126        -0.959458
 C        -2.407709         2.494938         1.768302
 H        -3.045775         5.242735         2.746956
 H        -1.200189         4.224596         1.204456
 H        -3.793840         2.800001        -0.270012
 H        -1.655612         1.471699        -0.906177
 H        -1.081579         3.243247        -0.769822
 H        -0.192400         2.471077         1.694230
 H        -0.559117         0.133803         2.216670
 H        -2.074581        -0.055275         1.323849
 H         0.548420        -1.148367         0.621898
 H        -3.064565         2.022070         2.582603
