19
Iteration:  4585charge 0 multiplicity 1
 O        -2.896954         4.932412         2.054771
 C        -2.417288         3.994085         1.180811
 C        -3.247723         2.733014         0.723562
 C        -2.277451         2.167927        -0.413709
 C        -1.186480         1.905161         0.594883
 C        -1.292657         0.418015         1.009554
 C        -0.361594        -0.333291        -0.092316
 O         0.844501        -0.113510        -0.151396
 C        -2.014081         2.663320         1.675420
 H        -2.181127         5.439677         2.400008
 H        -1.986141         4.374773         0.188130
 H        -4.203921         2.454379         1.079913
 H        -2.867835         1.229154        -0.867574
 H        -2.102710         2.891938        -1.277252
 H        -0.225042         2.040986         0.299316
 H        -1.076136         0.094421         2.007705
 H        -2.393956         0.214721         0.825335
 H        -0.984823        -1.060375        -0.653210
 H        -1.860186         2.238668         2.650110
