19
Iteration:  2502charge 0 multiplicity 1
 O        -3.964806         4.200247         0.637483
 C        -3.255355         3.011814         0.941725
 C        -2.137263         3.214415         1.978295
 C        -1.941938         1.825946         2.571000
 C        -1.597392         1.335797         1.062707
 C        -0.371248         0.474142         1.014943
 C         0.228084         0.354350        -0.427142
 O         0.246727         1.161315        -1.337814
 C        -1.796616         2.767097         0.498249
 H        -4.281014         4.219494        -0.261245
 H        -3.733155         2.106983         0.925265
 H        -1.978928         4.176360         2.421816
 H        -1.014764         1.917035         3.172816
 H        -2.857376         1.399340         3.151223
 H        -2.344450         0.667476         0.713678
 H         0.508944         1.000947         1.654326
 H        -0.539136        -0.391708         1.655985
 H         0.969422        -0.518743        -0.667727
 H        -1.117309         3.455989        -0.074414
