19
Iteration:  3511
 O        -3.599621         4.790143         1.673316
 C        -3.095955         3.687437         0.972186
 C        -2.673416         2.550433         1.934205
 C        -2.416941         1.287874         1.166193
 C        -1.308366         1.982166         0.340910
 C         0.166147         1.370285         0.431869
 C         0.250281         0.000074        -0.013201
 O        -0.324861        -0.540850        -0.936297
 C        -1.612689         3.256563         1.197261
 H        -3.543159         5.567815         1.088171
 H        -3.502737         3.429632        -0.035731
 H        -2.901635         2.513854         2.957370
 H        -2.053389         0.442654         1.827114
 H        -3.184368         0.896376         0.438900
 H        -1.499814         2.126800        -0.767010
 H         0.979075         1.958561        -0.060042
 H         0.472154         1.326843         1.468532
 H         1.049377        -0.555904         0.703727
 H        -1.081256         4.263357         1.444234
