19
Iteration:  3333
 O        -3.342315         4.921396         1.155327
 C        -3.087054         3.544675         0.884009
 C        -2.632659         2.760982         2.173524
 C        -2.558722         1.329601         1.903277
 C        -1.545265         1.474792         0.791028
 C        -0.145571         0.846855         0.946394
 C         0.455253         0.488857        -0.464720
 O        -0.164863         0.001188        -1.391217
 C        -1.663813         2.995743         0.934811
 H        -2.900106         5.407801         0.480330
 H        -3.776507         2.935084         0.165664
 H        -2.672591         3.232628         3.164029
 H        -2.262593         0.839649         2.799295
 H        -3.662509         0.822703         1.707691
 H        -1.929532         0.935240        -0.124503
 H         0.601228         1.450211         1.487971
 H        -0.159389        -0.102873         1.341030
 H         1.585859         0.422944        -0.654619
 H        -0.911792         3.600924         0.570496
