19
Iteration:  2919
 O        -3.778423         4.665204         1.140517
 C        -3.351399         3.327286         1.090734
 C        -2.308658         3.070935         2.151925
 C        -2.184252         1.528698         2.182962
 C        -1.753488         1.572273         0.706177
 C        -0.399751         0.942064         0.599740
 C         0.003248         0.383030        -0.720999
 O         1.070918        -0.129523        -0.992452
 C        -1.908559         3.074168         0.686647
 H        -4.308990         4.829321         0.369752
 H        -4.153606         2.651134         0.710998
 H        -2.165692         3.754915         2.907354
 H        -1.293716         1.057179         2.764258
 H        -3.114259         1.075734         2.335609
 H        -2.565231         1.216268         0.081853
 H         0.303937         1.497248         1.165176
 H        -0.722251        -0.048706         1.296761
 H        -0.875730         0.454274        -1.417687
 H        -1.246415         3.753365         0.242741
