19
Iteration:  3290charge 0 multiplicity 1
 O        -3.115454         4.818497         0.989688
 C        -3.030048         3.429458         0.967840
 C        -2.477013         2.790550         2.219721
 C        -2.569096         1.292475         2.082896
 C        -1.715277         1.316514         0.732118
 C        -0.322713         0.857419         0.931552
 C         0.358555         0.615858        -0.324838
 O        -0.147648         0.346273        -1.382598
 C        -1.652577         2.845090         0.711749
 H        -3.395904         5.044857         0.098692
 H        -3.946676         2.941005         0.450425
 H        -2.306888         3.288579         3.148138
 H        -2.067782         0.785891         2.831300
 H        -3.540212         0.718868         2.004661
 H        -2.038473         0.915663        -0.219244
 H         0.113484         1.444983         1.757333
 H        -0.438946        -0.098084         1.414144
 H         1.467372         0.589302        -0.173464
 H        -1.063464         3.573974         0.298073
