19
Iteration:  1084
 O        -3.564832         4.729825         1.719741
 C        -3.236870         3.584715         0.900324
 C        -2.782133         2.461074         1.850518
 C        -2.444623         1.270139         0.897253
 C        -1.290497         2.108939         0.243014
 C         0.186758         1.466280         0.554452
 C         0.402935         0.289161        -0.282518
 O        -0.150553        -0.784315        -0.271578
 C        -1.797953         3.283020         1.077491
 H        -3.453541         5.488950         1.144129
 H        -3.756721         3.558239        -0.040756
 H        -2.857714         2.305991         2.855653
 H        -2.019809         0.302225         1.437112
 H        -3.415387         0.973005         0.407671
 H        -1.063706         2.206686        -0.770303
 H         1.079346         2.092056         0.251196
 H         0.330979         1.233407         1.606562
 H         1.152463         0.484595        -1.169627
 H        -1.346181         4.232488         1.455839
