19
Iteration:  1693charge 0 multiplicity 1
 O        -3.421338         4.699079         0.857711
 C        -3.189822         3.321959         0.846944
 C        -2.299866         2.976863         2.109878
 C        -2.354063         1.369133         2.283390
 C        -1.755662         1.270688         0.859370
 C        -0.293836         0.910185         0.981139
 C         0.372711         0.314378        -0.241637
 O         0.026925         0.541846        -1.414621
 C        -1.748852         2.847502         0.651023
 H        -3.376428         5.058728        -0.036725
 H        -4.065651         2.739869         0.552111
 H        -2.224641         3.778348         2.900899
 H        -1.812224         0.913811         3.139413
 H        -3.360153         0.997320         2.403803
 H        -2.375986         0.711931         0.111576
 H         0.213933         1.802109         1.291715
 H        -0.020204         0.128536         1.657281
 H         1.326869        -0.085367         0.124277
 H        -1.092381         3.579315         0.054288
