19
Iteration:  1060
 O        -3.587943         4.807416         1.783051
 C        -3.180197         3.611494         1.058731
 C        -2.822641         2.467029         1.795647
 C        -2.459979         1.288571         0.802600
 C        -1.355503         2.090224         0.191150
 C         0.000359         1.567226         0.492225
 C         0.446835         0.243723        -0.288315
 O        -0.008136        -0.916124        -0.224705
 C        -1.688943         3.307964         1.039386
 H        -3.679628         5.389879         0.993883
 H        -3.819846         3.439737         0.153966
 H        -2.948377         2.335271         2.857562
 H        -2.102942         0.315004         1.258925
 H        -3.392568         1.076627         0.258752
 H        -1.271650         2.033262        -0.867825
 H         0.882469         2.296017         0.517994
 H        -0.085884         1.166959         1.505926
 H         1.339820         0.362545        -1.048080
 H        -1.001445         3.977615         1.574185
