19
Iteration:  2071charge 0 multiplicity 1
 O        -3.888342         4.661730         1.140531
 C        -3.374610         3.388181         1.098274
 C        -2.383205         3.104209         2.170508
 C        -2.184474         1.601817         2.287680
 C        -1.742797         1.443746         0.765749
 C        -0.397100         0.920947         0.538044
 C         0.151193         0.472098        -0.829188
 O         1.077400        -0.319174        -1.011125
 C        -1.943273         3.165560         0.693193
 H        -4.236893         4.908867         0.291873
 H        -4.064917         2.501365         0.844562
 H        -2.071005         3.874555         2.898425
 H        -1.453451         1.356825         3.083067
 H        -3.096727         1.109134         2.468830
 H        -2.477249         0.858683         0.163050
 H         0.373767         1.717110         0.883587
 H        -0.160076        -0.000393         1.198368
 H        -0.466494         0.816414        -1.767572
 H        -1.187711         3.803122         0.366188
