19
Iteration:  3446
 O        -3.440945         4.800909         1.352201
 C        -3.060879         3.531410         0.978312
 C        -2.628918         2.593293         2.037114
 C        -2.435593         1.196782         1.513258
 C        -1.443610         1.771062         0.519588
 C        -0.002839         1.247097         0.792310
 C         0.322964         0.066990        -0.182624
 O        -0.329762        -0.130154        -1.206898
 C        -1.649207         3.261546         1.019754
 H        -3.087329         5.428505         0.731064
 H        -3.668224         3.192617         0.128194
 H        -2.700049         2.851480         3.078374
 H        -1.828122         0.662879         2.308528
 H        -3.346403         0.613292         1.179422
 H        -1.698455         1.486328        -0.477809
 H         0.619562         2.145895         0.612650
 H         0.174369         1.039064         1.777831
 H         1.088706        -0.594924         0.124036
 H        -0.792419         4.015478         1.270437
