19
Iteration:  3072
 O        -3.179880         4.698330         0.647960
 C        -3.157325         3.299255         0.977502
 C        -2.273354         3.041978         2.115358
 C        -2.348439         1.487848         2.489053
 C        -1.861643         1.129427         1.060718
 C        -0.571295         0.436050         0.885161
 C        -0.198733         0.519450        -0.642455
 O         0.762286         1.076298        -1.151621
 C        -1.963053         2.570375         0.607774
 H        -3.169625         4.578843        -0.360633
 H        -4.121552         2.844370         1.036735
 H        -1.785988         3.879231         2.726905
 H        -1.663608         1.252391         3.479216
 H        -3.328159         1.042149         2.726799
 H        -2.687867         0.509190         0.548379
 H         0.294229         0.837814         1.386814
 H        -0.510190        -0.604777         1.064100
 H        -1.040616         0.050885        -1.245493
 H        -1.118157         3.034580        -0.045231
