19
Iteration:  3772charge 0 multiplicity 1
 O        -3.180829         4.904236         2.024197
 C        -3.015149         3.957243         1.022556
 C        -3.207973         2.555339         1.546835
 C        -2.827524         1.453127         0.450603
 C        -1.446230         2.139000         0.221992
 C        -0.181417         1.238396         0.444774
 C        -0.128669        -0.157802        -0.241949
 O         0.896966        -0.818136        -0.255892
 C        -1.789656         3.134721         1.315686
 H        -2.564297         5.637456         2.018997
 H        -3.507190         4.169448         0.035458
 H        -3.450596         2.332030         2.647041
 H        -2.577523         0.513172         1.064458
 H        -3.559577         1.313536        -0.369717
 H        -1.364175         2.641285        -0.671625
 H         0.648767         1.867803         0.353566
 H        -0.223133         1.038522         1.528900
 H        -0.970078        -0.640170        -0.736728
 H        -1.031864         3.480545         1.945559
