19
Iteration:   747
 O        -3.224322         4.983851         1.645444
 C        -2.881671         3.910863         0.931781
 C        -3.264580         2.598836         1.631874
 C        -3.057997         1.367219         0.775369
 C        -1.541221         1.911599         0.410914
 C        -0.344661         1.002373         0.694427
 C         0.054102        -0.071868        -0.357217
 O         1.217409        -0.391788        -0.448318
 C        -1.782396         3.054260         1.406694
 H        -3.404191         5.760114         1.100621
 H        -3.211708         4.019635        -0.162117
 H        -3.763538         2.613799         2.620604
 H        -3.012564         0.375377         1.262443
 H        -3.618961         1.259760        -0.153234
 H        -1.418403         2.244548        -0.589058
 H         0.510240         1.660348         1.048382
 H        -0.642685         0.346181         1.551054
 H        -0.724324        -0.770135        -0.677403
 H        -1.066614         3.327702         2.142538
