19
Iteration:   356charge 0 multiplicity 1
 O        -3.641726         4.877767         1.453216
 C        -2.731028         3.871972         0.926757
 C        -3.126201         2.471731         1.223098
 C        -2.466948         1.536141         0.178248
 C        -1.022862         2.025525         0.675011
 C         0.069833         1.029666         1.089190
 C         0.470361         0.001015         0.110761
 O        -0.365582        -0.416002        -0.711923
 C        -1.833165         2.933898         1.797863
 H        -3.209780         5.642072         1.856725
 H        -2.359431         4.060211        -0.116388
 H        -3.941892         2.326406         1.976198
 H        -2.532462         0.473521         0.234101
 H        -2.558615         1.889822        -0.807412
 H        -0.552554         2.704460        -0.066347
 H         0.927674         1.497650         1.412344
 H        -0.251273         0.355969         1.847654
 H         1.531611        -0.162144         0.050363
 H        -1.611193         2.965741         2.949747
