19
Iteration:  4626charge 0 multiplicity 1
 O        -3.096135         4.866116         2.080509
 C        -2.288272         4.076808         1.164608
 C        -3.133873         2.963768         0.700735
 C        -2.428404         2.196811        -0.384116
 C        -1.253082         1.793016         0.567601
 C        -1.305784         0.271924         0.909643
 C        -0.319462        -0.491327         0.073857
 O         0.799893        -0.009642        -0.201254
 C        -1.795323         2.697969         1.599037
 H        -2.463997         5.276604         2.739983
 H        -1.705235         4.776802         0.454133
 H        -4.104818         2.780851         1.092227
 H        -2.853794         1.311583        -0.880771
 H        -2.051991         2.857173        -1.172661
 H        -0.259537         2.190103         0.221660
 H        -0.993226        -0.011116         1.930879
 H        -2.313796        -0.189263         0.734408
 H        -0.565712        -1.583277        -0.196018
 H        -1.954001         2.380330         2.669672
