19
Iteration:  1558charge 0 multiplicity 1
 O        -3.492244         4.817203         1.063163
 C        -3.269774         3.446927         0.892277
 C        -2.741478         2.764268         2.102198
 C        -2.422478         1.204066         1.815522
 C        -1.414158         1.686771         0.690514
 C         0.188128         1.155084         0.797613
 C         0.559839         0.473536        -0.523841
 O        -0.228423        -0.341549        -0.992194
 C        -1.801148         3.145875         1.040056
 H        -2.999506         5.287990         0.384625
 H        -3.835250         2.696907         0.228025
 H        -2.891629         3.296627         3.084100
 H        -2.086828         0.598507         2.635722
 H        -3.408144         0.673123         1.465228
 H        -1.986948         1.485676        -0.338978
 H         0.759405         2.078994         1.226427
 H         0.169969         0.543849         1.692835
 H         1.434407         0.741840        -1.102265
 H        -1.152546         4.051351         1.008860
