19
Iteration:  3059
 O        -3.214620         4.665842         0.696016
 C        -3.187713         3.327137         0.995084
 C        -2.224685         2.997382         2.114768
 C        -2.428700         1.572715         2.501002
 C        -1.997613         1.104242         1.024547
 C        -0.422965         0.486002         0.858196
 C        -0.170142         0.543504        -0.625366
 O         0.817296         0.956803        -1.205183
 C        -1.910545         2.576743         0.625600
 H        -3.497775         4.973691        -0.138080
 H        -4.143613         2.822106         0.923759
 H        -1.872526         3.822976         2.689568
 H        -1.637626         1.120609         3.144225
 H        -3.451431         1.351638         2.898287
 H        -2.614741         0.420451         0.407975
 H         0.288496         1.057517         1.552635
 H        -0.652598        -0.553935         1.279287
 H        -1.050329         0.300312        -1.295154
 H        -1.196255         3.052029        -0.066099
