19
Iteration:  2836
 O        -3.615697         4.699214         1.005225
 C        -3.431344         3.256284         0.983726
 C        -2.597417         2.934924         2.217623
 C        -2.092033         1.461370         2.281791
 C        -1.646282         1.519373         0.830813
 C        -0.137760         1.137341         0.593557
 C         0.147688         0.717151        -0.809146
 O         0.679877        -0.352842        -1.003377
 C        -2.015151         2.970773         0.796617
 H        -3.638019         4.858070         0.031846
 H        -4.359901         2.814591         0.699159
 H        -2.307342         3.707944         2.929134
 H        -1.407803         1.276618         3.041526
 H        -2.923674         0.680254         2.578781
 H        -2.329227         0.908673         0.178078
 H         0.381401         2.131130         1.003914
 H         0.017147         0.331352         1.278108
 H         0.022082         1.480761        -1.623265
 H        -1.528238         3.879446         0.303543
