19
Iteration:  1847charge 0 multiplicity 1
 O        -3.190263         4.523633         0.366766
 C        -3.134094         3.186994         0.834287
 C        -2.296740         3.021966         2.114616
 C        -2.216486         1.540229         2.515853
 C        -1.736518         1.119355         1.063098
 C        -0.443378         0.361634         1.039009
 C         0.165894         0.446717        -0.417105
 O        -0.042843         1.382345        -1.197782
 C        -1.767339         2.697410         0.728589
 H        -3.475643         4.432138        -0.573587
 H        -4.088709         2.684190         0.740655
 H        -2.152836         3.924448         2.671954
 H        -1.414967         1.425657         3.300046
 H        -3.110101         1.027948         2.876714
 H        -2.441011         0.534530         0.567644
 H         0.443327         0.582155         1.741636
 H        -0.745764        -0.690216         1.302794
 H         0.677266        -0.470981        -0.779250
 H        -1.141036         3.201530         0.074715
