19
Iteration:  2897
 O        -3.844305         4.726453         1.105982
 C        -3.345010         3.365089         1.159357
 C        -2.383460         3.012502         2.186165
 C        -2.275061         1.522259         2.197005
 C        -1.709433         1.480929         0.749841
 C        -0.226815         0.964559         0.625558
 C         0.012759         0.447505        -0.796807
 O         0.995423        -0.230254        -0.998622
 C        -1.894575         3.100613         0.667671
 H        -4.020814         4.966181         0.152239
 H        -4.110011         2.539484         0.987778
 H        -2.296073         3.735456         2.902825
 H        -1.387692         1.177938         2.847873
 H        -3.178694         1.038307         2.316728
 H        -2.367074         1.158522        -0.021605
 H         0.555636         1.645440         0.824213
 H        -0.099733         0.102882         1.416593
 H        -0.700314         0.814507        -1.567883
 H        -1.261386         3.748301         0.152610
