19
Iteration:  2656charge 0 multiplicity 1
 O        -3.613884         4.373038         0.468177
 C        -3.209559         3.102957         0.963273
 C        -2.178781         3.059892         2.083275
 C        -2.122329         1.540689         2.492504
 C        -1.657818         1.236730         1.062486
 C        -0.072504         0.842475         1.045847
 C         0.393326         0.940214        -0.403045
 O        -0.307051         0.525291        -1.318917
 C        -1.822614         2.756061         0.661925
 H        -3.898646         4.229553        -0.473065
 H        -3.998477         2.294901         0.865680
 H        -2.119308         4.023741         2.710186
 H        -1.142464         1.356597         3.037248
 H        -2.927552         0.936161         2.945222
 H        -2.142433         0.586333         0.290688
 H         0.382800         1.568992         1.778111
 H         0.129021        -0.152911         1.375077
 H         1.484935         1.181200        -0.576690
 H        -1.336116         3.457736        -0.048737
