19
Iteration:  3927
 O        -2.959309         5.108561         1.531038
 C        -2.495353         3.948467         0.882406
 C        -3.398451         2.689036         1.431953
 C        -3.104352         1.374093         0.712341
 C        -1.659251         1.670878         0.657406
 C        -0.515628         0.657006         1.032962
 C        -0.052611        -0.144221        -0.276478
 O         1.017203         0.159697        -0.852250
 C        -1.798421         2.811772         1.651867
 H        -2.159686         5.722048         1.607186
 H        -2.147434         3.980352        -0.220315
 H        -4.272240         2.666621         1.980692
 H        -3.320441         0.366695         1.311224
 H        -3.656214         1.179280        -0.212418
 H        -1.153399         2.055712        -0.367195
 H         0.245453         1.338772         1.228496
 H        -0.548126        -0.022982         1.864967
 H        -0.693035        -1.080122        -0.578086
 H        -1.225870         3.028160         2.623923
