19
Iteration:  3350
 O        -3.353899         4.892447         1.157808
 C        -3.105918         3.510216         0.888622
 C        -2.686518         2.847268         2.135302
 C        -2.529203         1.216689         1.949799
 C        -1.525826         1.559054         0.717603
 C        -0.180492         0.893133         0.821007
 C         0.474446         0.369520        -0.474722
 O        -0.132610        -0.092440        -1.390431
 C        -1.671645         3.112163         1.061574
 H        -2.778523         5.445844         0.667858
 H        -3.786278         3.133940         0.188664
 H        -2.880048         3.427054         3.020882
 H        -1.961645         0.675628         2.797094
 H        -3.425394         0.774944         1.709163
 H        -2.020543         1.411721        -0.260217
 H         0.606285         1.510352         1.321118
 H        -0.357295        -0.095996         1.474862
 H         1.555440         0.550305        -0.461724
 H        -0.804099         3.863353         1.251666
