19
Iteration:  4354charge 0 multiplicity 1
 O        -3.398473         4.657938         2.428874
 C        -2.711326         4.044197         1.246533
 C        -3.214460         2.807097         0.569173
 C        -2.232266         2.388232        -0.597351
 C        -1.029579         2.270722         0.452274
 C        -0.418282         0.880490         0.891141
 C         0.101301        -0.069209        -0.181796
 O         0.042156        -1.276887         0.103685
 C        -1.909486         2.852297         1.488171
 H        -2.652942         4.884960         3.021490
 H        -2.333375         4.858775         0.672618
 H        -4.166308         2.273456         0.676497
 H        -2.356764         1.331790        -1.043866
 H        -2.167418         2.960983        -1.511692
 H        -0.066185         2.859818         0.114356
 H         0.458663         1.090763         1.517732
 H        -1.169687         0.250743         1.461187
 H         0.596366         0.311406        -1.127025
 H        -1.809549         2.548463         2.536672
