19
Iteration:   154
 O        -3.267181         4.742989         1.891243
 C        -2.722262         3.900220         0.942653
 C        -3.246491         2.532467         1.016760
 C        -2.543752         1.636750        -0.026872
 C        -1.235335         2.094339         0.464889
 C        -0.276718         1.105007         1.084952
 C         0.475383         0.129459         0.219051
 O        -0.047036        -0.694661        -0.517593
 C        -1.818915         2.923914         1.583554
 H        -3.795024         5.457561         1.487190
 H        -2.556881         4.352052        -0.016552
 H        -4.202435         2.223774         1.486026
 H        -2.877980         0.609591         0.122896
 H        -2.603350         1.867466        -1.146518
 H        -0.616760         2.668291        -0.325132
 H         0.429938         1.698713         1.605764
 H        -0.832766         0.546646         1.830897
 H         1.550958         0.235948         0.213797
 H        -1.379434         3.267761         2.572182
