19
Iteration:  2259
 O        -3.744725         4.315441         0.447749
 C        -3.158523         3.113019         0.914661
 C        -2.527483         3.060468         2.198981
 C        -2.122294         1.623360         2.560721
 C        -1.436464         1.384650         1.188719
 C        -0.100709         0.695331         0.940073
 C         0.385233         0.879919        -0.484132
 O        -0.210478         0.424633        -1.474761
 C        -1.657859         2.913060         0.806033
 H        -3.430760         4.241036        -0.493345
 H        -3.719949         2.133071         0.576764
 H        -2.646782         3.870269         2.841473
 H        -1.345266         1.623875         3.438552
 H        -2.946923         1.024475         2.960187
 H        -2.124211         0.939774         0.331849
 H         0.679158         0.907933         1.634631
 H        -0.340312        -0.372450         1.142391
 H         1.182520         1.658992        -0.686564
 H        -0.953542         3.693946         0.348706
