19
Iteration:  2375charge 0 multiplicity 1
 O        -3.611665         4.373801         0.463062
 C        -3.384987         3.112868         1.060806
 C        -2.179203         2.991115         1.936235
 C        -2.023867         1.612764         2.539794
 C        -1.604630         1.150067         1.096779
 C        -0.094959         0.908938         1.084403
 C         0.360322         0.485593        -0.332333
 O        -0.097824         1.100716        -1.322712
 C        -1.992675         2.524668         0.491315
 H        -3.881951         4.216488        -0.500582
 H        -4.345771         2.567284         1.266998
 H        -1.913642         3.876949         2.501422
 H        -1.222913         1.615771         3.324639
 H        -2.922958         1.190645         2.943321
 H        -1.978248         0.259324         0.524906
 H         0.393652         1.958437         1.314180
 H         0.445552         0.270949         1.898104
 H         0.924985        -0.403053        -0.491804
 H        -1.447645         3.041403        -0.387288
