19
Iteration:  4444charge 0 multiplicity 1
 O        -3.272128         5.002047         2.095223
 C        -2.561307         4.029538         1.192042
 C        -3.240323         2.805808         0.689640
 C        -2.344188         2.310119        -0.431717
 C        -1.124185         2.013523         0.711137
 C        -0.829961         0.552915         0.949127
 C        -0.078993        -0.069622        -0.184128
 O         0.637143        -1.024323        -0.231022
 C        -1.981293         2.762097         1.761892
 H        -2.499800         5.296383         2.560737
 H        -1.990365         4.513427         0.426622
 H        -4.280756         2.664663         0.938100
 H        -2.714286         1.368214        -0.850831
 H        -2.335645         2.848975        -1.336756
 H        -0.182723         2.636313         0.428119
 H        -0.331429         0.330853         1.905114
 H        -1.773494         0.002472         1.196581
 H        -0.039719         0.692091        -1.011371
 H        -2.077791         2.715352         2.901364
