19
Iteration:  2686
 O        -3.714982         4.463616         0.637832
 C        -3.269647         3.139867         0.892341
 C        -2.352117         3.126306         2.128147
 C        -2.134341         1.639032         2.572996
 C        -1.585166         1.305539         1.167528
 C        -0.095969         0.833966         0.948264
 C         0.412842         0.828003        -0.494859
 O        -0.034095         0.298153        -1.504020
 C        -1.831611         2.764516         0.696735
 H        -3.764419         4.615801        -0.328107
 H        -4.041063         2.270387         0.782314
 H        -2.536346         3.989752         2.678629
 H        -1.229094         1.571798         3.342069
 H        -2.988108         1.037111         2.751721
 H        -2.239996         0.556470         0.604076
 H         0.550483         1.326327         1.584923
 H         0.025019        -0.249785         1.308845
 H         1.406578         1.317978        -0.603531
 H        -1.266103         3.328909        -0.030217
