19
Iteration:  1868
 O        -3.310040         4.571461         0.525915
 C        -3.097034         3.187885         0.814667
 C        -2.361452         3.032124         2.081829
 C        -2.263200         1.540798         2.507930
 C        -1.806804         1.157303         1.072622
 C        -0.428061         0.500743         0.989594
 C         0.116372         0.358197        -0.427053
 O         0.097911         1.250765        -1.266587
 C        -1.669865         2.637238         0.689472
 H        -3.321112         4.584679        -0.430025
 H        -3.940656         2.545199         0.587949
 H        -2.039602         3.849340         2.694479
 H        -1.473170         1.462349         3.239636
 H        -3.167233         1.178752         2.937984
 H        -2.633639         0.714423         0.502369
 H         0.349436         1.224944         1.479575
 H        -0.371736        -0.397164         1.647096
 H         0.615904        -0.678664        -0.591140
 H        -0.830863         3.020516         0.200237
