19
Iteration:  2625charge 0 multiplicity 1
 O        -3.542152         4.350307         0.463169
 C        -3.229148         3.058446         0.922228
 C        -2.221503         3.040912         1.999906
 C        -2.128187         1.589736         2.491863
 C        -1.530293         1.162632         1.163315
 C        -0.021111         0.851913         1.102116
 C         0.374254         0.845523        -0.392967
 O        -0.455323         0.814607        -1.294319
 C        -1.867703         2.600567         0.583777
 H        -3.576648         4.258220        -0.497645
 H        -3.991187         2.370087         0.841025
 H        -1.778380         4.015000         2.423320
 H        -1.476523         1.418818         3.277609
 H        -2.984203         0.877724         2.832451
 H        -2.034738         0.421362         0.587738
 H         0.513610         1.805202         1.567686
 H         0.273662        -0.072984         1.624773
 H         1.447235         0.751334        -0.598924
 H        -1.301282         3.329785        -0.035970
