19
Iteration:  3568charge 0 multiplicity 1
 O        -3.482790         4.731633         1.846979
 C        -3.092667         3.705402         1.048540
 C        -2.786796         2.474072         1.816100
 C        -2.538931         1.279329         0.854680
 C        -1.356755         2.111272         0.199836
 C         0.154943         1.505636         0.338474
 C         0.500215         0.048793        -0.143428
 O        -0.408961        -0.711965        -0.461019
 C        -1.666216         3.289027         1.132502
 H        -3.017498         5.556090         1.559476
 H        -3.611589         3.645215         0.097799
 H        -3.173048         2.408030         2.868198
 H        -2.127884         0.253868         1.234573
 H        -3.306736         1.106524         0.140677
 H        -1.403315         2.381696        -0.813208
 H         0.980589         2.210986         0.110139
 H         0.352441         1.333003         1.383670
 H         1.573530        -0.254773        -0.253731
 H        -0.916599         3.653257         1.763737
