19
Iteration:   803charge 0 multiplicity 1
 O        -3.376222         4.942260         1.836754
 C        -3.112866         3.865930         0.948873
 C        -2.989275         2.497784         1.680774
 C        -2.915754         1.428324         0.665873
 C        -1.476989         2.010573         0.249530
 C        -0.364515         1.018610         0.603671
 C         0.033479        -0.125601        -0.234414
 O         1.153155        -0.568128        -0.310888
 C        -1.760117         3.267432         1.189448
 H        -2.695955         5.565884         1.553780
 H        -3.605634         3.984587        -0.087786
 H        -3.510338         2.486823         2.704244
 H        -2.932831         0.395311         0.915978
 H        -3.528844         1.591016        -0.265034
 H        -1.375258         2.321954        -0.760087
 H         0.549857         1.635534         0.895771
 H        -0.632556         0.637657         1.640572
 H        -0.829393        -0.612637        -0.742307
 H        -1.129820         4.029184         1.718808
