19
Iteration:  3134
 O        -3.187457         4.626876         0.553527
 C        -3.090092         3.212223         0.836986
 C        -2.097339         2.989305         2.083028
 C        -2.253083         1.539949         2.573052
 C        -1.896397         1.146380         1.031810
 C        -0.683286         0.169577         0.758671
 C        -0.085523         0.400477        -0.541505
 O         0.323253         1.467475        -0.981983
 C        -1.715978         2.651619         0.687591
 H        -2.977794         4.867374        -0.406812
 H        -4.054793         2.637995         0.640574
 H        -2.033842         3.973039         2.622688
 H        -1.452471         1.281195         3.121106
 H        -3.204237         1.180308         3.003872
 H        -2.745335         0.752829         0.505997
 H        -0.020411         0.352760         1.683637
 H        -1.288339        -0.819786         0.883119
 H         0.009302        -0.451627        -1.230776
 H        -0.853799         3.042291         0.056846
