19
Iteration:  4529
 O        -3.124109         4.959181         2.049647
 C        -2.191444         4.087645         1.213780
 C        -3.151207         3.114718         0.512458
 C        -2.542494         2.088476        -0.385616
 C        -1.423412         1.866208         0.718067
 C        -0.897570         0.406609         1.065740
 C        -0.234558        -0.291578        -0.111669
 O         0.981361        -0.536543        -0.329867
 C        -2.253185         2.687756         1.775388
 H        -2.697779         5.023506         2.960588
 H        -1.274325         4.693446         0.839904
 H        -4.180202         3.458582         0.628396
 H        -3.362427         1.201263        -0.356550
 H        -2.395192         2.535418        -1.439012
 H        -0.526690         2.316481         0.366476
 H        -0.150577         0.569762         1.822544
 H        -1.701167        -0.330981         1.516796
 H        -0.961802        -0.427388        -0.908380
 H        -2.430626         2.263612         2.825929
