19
Iteration:  3689charge 0 multiplicity 1
 O        -3.546866         4.709613         2.036846
 C        -3.070524         3.827593         1.085188
 C        -2.841272         2.461396         1.658290
 C        -2.487444         1.513422         0.500054
 C        -1.223990         2.304817         0.096382
 C        -0.086131         1.351758         0.255558
 C        -0.077271        -0.005119        -0.423797
 O         0.282799        -1.026490         0.082248
 C        -1.609934         3.286061         1.280265
 H        -3.281856         5.662614         1.846769
 H        -3.408478         4.050801         0.079362
 H        -3.002076         2.207117         2.694124
 H        -2.499504         0.463103         0.784177
 H        -3.274049         1.612893        -0.216545
 H        -1.238958         2.709776        -0.997931
 H         0.812075         1.946003        -0.127113
 H         0.056398         1.189491         1.344207
 H        -0.527990         0.124756        -1.459493
 H        -0.976037         3.780066         1.976950
