19
Iteration:  2288charge 0 multiplicity 1
 O        -3.704175         4.292055         0.330466
 C        -3.250997         3.022611         0.868528
 C        -2.418334         3.071171         2.195637
 C        -2.025957         1.596045         2.606635
 C        -1.462027         1.345732         1.185196
 C        -0.145241         0.670953         0.952718
 C         0.373630         0.801917        -0.459770
 O        -0.276875         0.645194        -1.447898
 C        -1.699461         2.913866         0.904376
 H        -3.410846         4.298072        -0.626061
 H        -3.791852         2.175413         0.630908
 H        -2.638406         4.001639         2.823080
 H        -1.124533         1.764784         3.314382
 H        -2.876515         1.060339         3.041097
 H        -2.025739         1.008813         0.418919
 H         0.720391         0.962827         1.610385
 H        -0.356290        -0.383042         1.122799
 H         1.510989         1.077031        -0.517676
 H        -1.120423         3.574563         0.183666
