19
Iteration:  2681
 O        -3.709368         4.454833         0.611561
 C        -3.247556         3.117432         0.896228
 C        -2.346545         3.107838         2.114390
 C        -2.082247         1.666718         2.570217
 C        -1.619455         1.273302         1.147110
 C        -0.083638         0.844086         0.928366
 C         0.391313         0.819368        -0.452026
 O        -0.074151         0.342514        -1.482638
 C        -1.818996         2.741390         0.696687
 H        -3.783452         4.487144        -0.349702
 H        -4.020723         2.432074         0.862131
 H        -2.390384         4.032025         2.827320
 H        -1.447632         1.563292         3.363476
 H        -2.973135         0.842858         2.595381
 H        -2.176198         0.621831         0.524653
 H         0.572353         1.504012         1.675868
 H        -0.099927        -0.191044         1.306101
 H         1.342518         1.408236        -0.535155
 H        -1.142244         3.299085         0.019532
