19
Iteration:  3337charge 0 multiplicity 1
 O        -3.351488         4.915254         1.165067
 C        -3.124152         3.555507         0.846344
 C        -2.626914         2.776288         2.179628
 C        -2.538506         1.320702         1.908419
 C        -1.575249         1.499591         0.790799
 C        -0.127219         0.860726         0.913531
 C         0.464597         0.470872        -0.451210
 O        -0.164038        -0.039161        -1.416771
 C        -1.662672         2.997956         0.988684
 H        -2.809192         5.447960         0.486152
 H        -3.773898         3.043430         0.176965
 H        -2.817505         3.320573         3.162102
 H        -2.192530         0.650497         2.741159
 H        -3.401083         0.816617         1.620443
 H        -1.923251         1.086206        -0.105576
 H         0.527755         1.485497         1.601167
 H        -0.173208        -0.192878         1.435510
 H         1.565987         0.422114        -0.630449
 H        -0.812135         3.724005         0.607123
