19
Iteration:   802
 O        -3.379237         4.950225         1.834063
 C        -3.118150         3.863831         0.958578
 C        -2.989679         2.504854         1.681749
 C        -2.924873         1.439594         0.664138
 C        -1.483155         2.002060         0.249654
 C        -0.346709         1.002484         0.595294
 C         0.034644        -0.125796        -0.230965
 O         1.156205        -0.564099        -0.313248
 C        -1.757290         3.264882         1.187060
 H        -2.721525         5.578284         1.540064
 H        -3.586461         3.987950        -0.101195
 H        -3.502903         2.494782         2.705103
 H        -2.946568         0.391929         0.919623
 H        -3.491234         1.599939        -0.245474
 H        -1.388339         2.306904        -0.744982
 H         0.558473         1.641617         0.910202
 H        -0.641867         0.620746         1.643709
 H        -0.820489        -0.627451        -0.753823
 H        -1.160242         3.983007         1.760000
