19
Iteration:   532
 O        -3.381008         4.911662         1.681558
 C        -2.915595         3.887199         0.829573
 C        -3.158489         2.602235         1.502055
 C        -2.946451         1.489994         0.481547
 C        -1.338117         1.904131         0.412313
 C        -0.327548         0.922437         1.026323
 C         0.184558        -0.268627         0.215856
 O         0.765743        -0.178387        -0.861044
 C        -1.700463         3.041630         1.407951
 H        -2.552812         5.348449         1.940243
 H        -3.022269         4.032504        -0.244034
 H        -3.827866         2.677735         2.325118
 H        -3.253049         0.515262         0.672714
 H        -3.511866         1.700383        -0.468856
 H        -1.073377         2.181644        -0.567351
 H         0.573169         1.566295         0.895750
 H        -0.510743         0.703498         2.183728
 H         0.111741        -1.244880         0.734523
 H        -0.973187         3.430013         2.100825
