19
Iteration:  1753
 O        -3.274485         4.613410         0.477029
 C        -3.138491         3.301353         0.932255
 C        -2.354111         3.060511         2.128029
 C        -2.281468         1.506946         2.454849
 C        -1.759172         1.157701         1.042533
 C        -0.382703         0.415834         0.961955
 C         0.368290         0.552154        -0.305806
 O        -0.076425         1.044958        -1.329176
 C        -1.799460         2.632921         0.650585
 H        -3.360236         4.684220        -0.466620
 H        -4.156980         2.773774         0.883319
 H        -1.870697         3.728665         2.804697
 H        -1.421102         1.476264         3.200903
 H        -3.248667         1.061379         2.897815
 H        -2.510297         0.457751         0.398947
 H         0.246745         0.542328         1.895557
 H        -0.595360        -0.753434         0.977009
 H         1.446791         0.363678        -0.368993
 H        -1.081427         3.231023         0.202293
