19
Iteration:  4742
 O        -2.979761         4.916135         2.024991
 C        -2.187377         3.970987         1.289746
 C        -3.110637         3.102968         0.427945
 C        -2.188714         2.154003        -0.492006
 C        -1.328636         1.798080         0.806195
 C        -1.182356         0.204447         1.094754
 C         0.068590        -0.263111         0.447239
 O         0.427576        -0.099516        -0.756633
 C        -2.378012         2.573812         1.721089
 H        -2.601482         5.055852         2.923367
 H        -1.212864         4.355068         0.905414
 H        -4.186771         3.198604         0.420789
 H        -2.546657         1.268184        -1.013121
 H        -1.565059         2.771888        -1.230732
 H        -0.347967         2.226892         0.792685
 H        -1.174083        -0.080710         2.156536
 H        -2.048477        -0.260441         0.638631
 H         0.756275        -0.839768         1.036409
 H        -2.862835         2.342978         2.753049
