19
Iteration:  3213charge 0 multiplicity 1
 O        -3.121889         4.744461         0.729755
 C        -3.133032         3.333644         0.961021
 C        -2.241058         2.977449         2.121299
 C        -2.385531         1.455303         2.437037
 C        -1.932026         1.148586         0.902864
 C        -0.567845         0.363933         0.809241
 C         0.237956         0.464087        -0.336761
 O         0.148347         1.091143        -1.367125
 C        -1.736733         2.656909         0.720546
 H        -2.890343         4.816575        -0.251491
 H        -4.157934         2.853770         0.858964
 H        -2.041362         3.860399         2.726927
 H        -1.713205         1.105059         3.128095
 H        -3.397106         1.160865         2.728436
 H        -2.577644         0.801963         0.127448
 H        -0.009681         0.777674         1.715394
 H        -0.859681        -0.694540         1.197945
 H         1.163188        -0.272428        -0.208714
 H        -1.158208         3.054005        -0.038390
