19
Iteration:  2231
 O        -3.707998         4.409319         0.629004
 C        -3.145706         3.129225         0.775421
 C        -2.470910         3.016500         2.139070
 C        -2.058615         1.560624         2.504607
 C        -1.561545         1.317269         1.090039
 C        -0.137763         0.882697         0.939657
 C         0.326651         0.949536        -0.496231
 O        -0.094241         0.244381        -1.380994
 C        -1.728562         2.859736         0.780249
 H        -3.900881         4.414157        -0.319614
 H        -3.778438         2.332033         0.436810
 H        -2.240381         3.986149         2.706480
 H        -1.406518         1.409605         3.385380
 H        -2.951608         0.934282         2.833625
 H        -2.180843         0.750142         0.458905
 H         0.471504         1.477281         1.679888
 H        -0.040916        -0.151323         1.420317
 H         0.828870         1.847462        -0.802662
 H        -0.988011         3.546647         0.603985
