19
Iteration:  3547charge 0 multiplicity 1
 O        -3.583706         4.781905         1.811305
 C        -3.006817         3.681803         1.016723
 C        -2.770363         2.490183         1.824463
 C        -2.413973         1.288575         0.914473
 C        -1.301723         2.099576         0.230491
 C         0.034027         1.480392         0.420979
 C         0.282133         0.121577        -0.082701
 O        -0.325027        -0.785181        -0.669129
 C        -1.559209         3.266267         1.215591
 H        -3.433770         5.660620         1.360615
 H        -3.376604         3.620257         0.009919
 H        -3.044782         2.276850         2.910147
 H        -2.019673         0.448671         1.626630
 H        -3.193311         0.883209         0.325148
 H        -1.559920         2.310614        -0.738807
 H         0.841488         1.966941        -0.155698
 H         0.368130         1.477883         1.356113
 H         1.413171        -0.228089         0.214291
 H        -0.974409         4.064283         1.557481
