19
Iteration:  4697
 O        -2.823700         4.969429         2.175249
 C        -2.319590         3.986558         1.315894
 C        -3.258867         3.049973         0.471691
 C        -2.408457         2.275663        -0.619983
 C        -1.439200         1.819375         0.682314
 C        -1.101704         0.413498         1.052587
 C         0.094020        -0.472104         0.397467
 O         0.716294        -0.241512        -0.587753
 C        -2.409337         2.551270         1.582360
 H        -2.334987         4.984140         3.040777
 H        -1.337465         4.220804         0.863773
 H        -4.319963         3.371421         0.527776
 H        -2.963329         1.519078        -1.249770
 H        -1.856671         3.004276        -1.301912
 H        -0.543179         2.376345         0.617144
 H        -0.818438         0.429832         2.108338
 H        -2.023318        -0.186704         1.055495
 H         0.395747        -1.253638         1.063446
 H        -2.661511         1.991403         2.509135
