19
Iteration:  2689
 O        -3.716066         4.464305         0.648031
 C        -3.286428         3.141987         0.896233
 C        -2.363060         3.114233         2.121891
 C        -2.144334         1.630569         2.574593
 C        -1.561374         1.321594         1.160428
 C        -0.120090         0.812179         0.960948
 C         0.430231         0.832565        -0.521136
 O        -0.017546         0.276059        -1.508876
 C        -1.839858         2.779952         0.701014
 H        -3.750123         4.669562        -0.279892
 H        -4.016353         2.282687         0.739488
 H        -2.552904         4.113309         2.709452
 H        -1.270606         1.558591         3.270120
 H        -3.037780         1.147677         2.946780
 H        -2.251308         0.559340         0.674302
 H         0.641159         1.344865         1.584119
 H         0.058319        -0.192068         1.263894
 H         1.469503         1.300771        -0.628666
 H        -1.274003         3.369209        -0.068990
