19
Iteration:  1782
 O        -3.231470         4.459845         0.389499
 C        -3.037687         3.134013         0.802533
 C        -2.230684         3.023112         2.069386
 C        -2.198495         1.533626         2.572670
 C        -1.857259         1.149575         1.121553
 C        -0.562005         0.378429         0.893470
 C         0.183830         0.664376        -0.283090
 O        -0.105056         1.290834        -1.270351
 C        -1.674855         2.594636         0.677475
 H        -2.886773         4.696573        -0.492115
 H        -3.901429         2.426643         0.767661
 H        -2.014129         3.794554         2.781829
 H        -1.507256         1.451864         3.500074
 H        -3.139686         1.344812         3.018789
 H        -2.702668         0.640440         0.699492
 H         0.095759         0.667845         1.691526
 H        -0.795966        -0.670720         1.041538
 H         1.311534         0.453136        -0.116470
 H        -0.880970         3.078513         0.112219
