19
Iteration:   136charge 0 multiplicity 1
 O        -3.200607         4.923717         1.900676
 C        -2.739540         3.913370         0.918529
 C        -3.280521         2.469051         0.944001
 C        -2.556043         1.546472        -0.040442
 C        -1.106363         2.177684         0.498028
 C        -0.180130         1.056045         1.200933
 C         0.450363         0.204062         0.124461
 O        -0.111090        -0.671391        -0.515770
 C        -1.956581         2.844679         1.558586
 H        -4.168538         4.910332         1.782230
 H        -2.278253         4.256477        -0.054971
 H        -4.211918         2.198675         1.525723
 H        -2.411068         0.478908         0.289346
 H        -2.943787         1.442621        -1.002813
 H        -0.448125         2.694387        -0.209489
 H         0.635758         1.528977         1.794275
 H        -0.837795         0.436601         1.844008
 H         1.599404         0.367276         0.037332
 H        -1.850784         2.695606         2.610137
