19
Iteration:  2466charge 0 multiplicity 1
 O        -3.894916         4.331015         0.641891
 C        -3.386221         3.113287         1.024489
 C        -2.266174         3.158643         2.005986
 C        -1.837442         1.847673         2.509618
 C        -1.641184         1.255130         1.026583
 C        -0.266994         0.491170         0.992758
 C         0.344844         0.301301        -0.403230
 O         0.319470         1.134000        -1.306246
 C        -2.036239         2.722351         0.434660
 H        -4.346185         4.142113        -0.193391
 H        -4.173396         2.416625         1.083085
 H        -1.819260         4.093085         2.493008
 H        -0.728419         1.732043         2.922173
 H        -2.350014         1.230502         3.210466
 H        -2.449587         0.653756         0.708046
 H         0.479663         1.156510         1.605135
 H        -0.402253        -0.466816         1.548357
 H         1.106959        -0.610871        -0.403234
 H        -1.375415         3.164250        -0.270133
