19
Iteration:  1654charge 0 multiplicity 1
 O        -3.512281         4.814120         0.934853
 C        -3.328891         3.426152         0.971022
 C        -2.528690         2.948199         2.172511
 C        -2.376351         1.428351         2.084253
 C        -1.558506         1.387307         0.788897
 C        -0.109953         0.898068         0.871121
 C         0.529577         0.294924        -0.277712
 O         0.011395         0.145510        -1.379726
 C        -1.815413         3.040250         0.794707
 H        -3.314470         5.080192         0.015648
 H        -4.225960         2.755107         0.807631
 H        -2.457576         3.592554         3.051925
 H        -1.694034         0.851276         2.785293
 H        -3.342872         0.896728         1.833537
 H        -1.969957         0.778936        -0.082010
 H         0.658125         1.550165         1.404263
 H        -0.088637         0.119640         1.727794
 H         1.561794        -0.166587        -0.310858
 H        -1.190339         3.715792         0.203537
