19
Iteration:  1364
 O        -3.532240         4.753203         1.717274
 C        -3.293805         3.531085         1.066087
 C        -2.759103         2.447913         1.962454
 C        -2.298676         1.281659         1.053761
 C        -1.391974         2.086681         0.118032
 C         0.029546         1.579333         0.289566
 C         0.310604         0.058841         0.274566
 O         0.032863        -0.704002        -0.676481
 C        -1.793145         3.343461         0.869437
 H        -3.216636         5.569617         1.326873
 H        -3.881310         3.387700         0.199489
 H        -2.968964         2.540488         3.070419
 H        -1.836930         0.570820         1.784323
 H        -3.169042         0.718655         0.660934
 H        -1.570136         1.993035        -0.934288
 H         0.593549         1.969146        -0.509815
 H         0.425241         2.126184         1.176788
 H         0.948633        -0.415343         1.120285
 H        -1.313078         4.372409         1.061387
