19
Iteration:  2115
 O        -3.772781         4.702866         1.141367
 C        -3.439765         3.300603         1.162409
 C        -2.327213         3.079524         2.067368
 C        -2.102854         1.550664         2.199048
 C        -1.769459         1.455067         0.688483
 C        -0.221902         0.970020         0.664689
 C         0.350129         0.742363        -0.656223
 O         0.738603        -0.350918        -1.004291
 C        -2.087987         2.936409         0.543083
 H        -4.157897         4.849558         0.287683
 H        -4.398622         2.657625         1.133324
 H        -2.077078         3.995934         2.709982
 H        -1.368185         1.031254         2.856545
 H        -3.026385         1.112676         2.381506
 H        -2.496526         0.699439         0.172583
 H         0.352097         1.715731         1.327506
 H        -0.086923         0.001010         1.276290
 H         0.261561         1.683481        -1.221551
 H        -1.578775         3.787577         0.044960
