19
Iteration:  4456charge 0 multiplicity 1
 O        -3.127953         4.931978         2.014945
 C        -2.540221         4.072698         1.174044
 C        -3.272019         2.839769         0.739953
 C        -2.367281         2.292424        -0.366861
 C        -1.217670         2.062777         0.715032
 C        -0.809138         0.548320         1.038431
 C        -0.060224        -0.037806        -0.227901
 O         0.690885        -1.004809        -0.248271
 C        -2.161368         2.692765         1.731934
 H        -2.521606         5.354157         2.666762
 H        -1.861461         4.552978         0.460762
 H        -4.347129         2.764715         0.728065
 H        -2.691807         1.359830        -0.747375
 H        -2.115453         3.048577        -1.086070
 H        -0.222083         2.618412         0.564671
 H        -0.078086         0.560689         1.871429
 H        -1.749005         0.000251         1.251623
 H        -0.368202         0.421720        -1.191251
 H        -2.223182         2.396676         2.797270
