19
Iteration:  2124
 O        -3.730344         4.684865         1.107431
 C        -3.434732         3.283630         1.116810
 C        -2.282653         3.091038         2.113982
 C        -2.132893         1.501719         2.227687
 C        -1.783390         1.424157         0.727857
 C        -0.257503         1.037096         0.710164
 C         0.401210         0.810053        -0.665432
 O         0.671361        -0.344515        -1.022547
 C        -2.117560         2.913267         0.559607
 H        -4.096680         4.867156         0.245538
 H        -4.269883         2.604783         1.057697
 H        -2.069843         3.869963         2.861115
 H        -1.314299         1.161851         2.970784
 H        -3.061333         1.119172         2.503517
 H        -2.316317         0.864670        -0.078997
 H         0.283613         1.846027         1.251069
 H        -0.157561         0.131027         1.173885
 H         0.572749         1.629494        -1.369910
 H        -1.652518         3.310713        -0.269009
