19
Iteration:  1534charge 0 multiplicity 1
 O        -3.515835         4.814347         1.101354
 C        -3.149085         3.471979         0.915116
 C        -2.789778         2.664417         2.109955
 C        -2.386827         1.212875         1.685930
 C        -1.364075         1.675579         0.627273
 C         0.007106         1.336899         0.727715
 C         0.464406         0.476382        -0.404041
 O        -0.255170        -0.359527        -0.924412
 C        -1.668378         3.098075         1.036918
 H        -3.308509         5.292063         0.295196
 H        -3.720074         2.773335         0.185458
 H        -2.856355         2.963650         3.165728
 H        -1.848785         0.635699         2.531744
 H        -3.313339         0.557406         1.497329
 H        -1.860725         1.237745        -0.366986
 H         0.677857         2.284825         0.850787
 H         0.289672         0.806305         1.642589
 H         1.490510         0.582296        -0.742675
 H        -0.920338         3.941119         0.919253
