19
Iteration:  1525
 O        -3.527282         4.793405         1.132210
 C        -3.100559         3.445453         0.888066
 C        -2.704921         2.677105         2.078698
 C        -2.361765         1.170932         1.723969
 C        -1.508243         1.683314         0.599120
 C         0.055278         1.353213         0.726342
 C         0.483094         0.427296        -0.371946
 O        -0.266069        -0.369464        -0.929199
 C        -1.690879         3.117760         1.058255
 H        -3.439247         5.314835         0.337597
 H        -3.711593         2.999377         0.024527
 H        -2.965379         3.132378         3.076190
 H        -1.914826         0.635248         2.550587
 H        -3.173576         0.545802         1.197352
 H        -1.858356         1.688654        -0.541622
 H         0.533026         2.420401         0.669707
 H         0.188626         1.042305         1.777285
 H         1.553944         0.563949        -0.636449
 H        -0.926697         3.950082         1.066085
