19
Iteration:  1567charge 0 multiplicity 1
 O        -3.538092         4.808069         1.067211
 C        -3.265216         3.443895         0.825075
 C        -2.765608         2.801923         2.163274
 C        -2.399370         1.240493         1.845385
 C        -1.372214         1.663466         0.727718
 C         0.028932         1.147831         0.836371
 C         0.566752         0.445689        -0.521812
 O        -0.178573        -0.334237        -1.059395
 C        -1.720889         3.140801         1.074870
 H        -2.998036         5.309385         0.449206
 H        -4.020970         2.881481         0.127680
 H        -2.830426         3.385604         3.117692
 H        -1.967087         0.624402         2.695173
 H        -3.379067         0.827842         1.384777
 H        -1.657156         1.062353        -0.189310
 H         0.768644         2.011592         0.928942
 H         0.074526         0.385234         1.570046
 H         1.390546         0.858089        -1.162833
 H        -1.125250         4.047574         0.738616
