19
Iteration:  1235charge 0 multiplicity 1
 O        -3.675455         4.704527         1.550755
 C        -3.124291         3.586203         0.904577
 C        -2.753069         2.492820         1.925410
 C        -2.472775         1.215213         1.101782
 C        -1.301659         1.956099         0.361037
 C         0.061464         1.430356         0.627748
 C         0.466581         0.380992        -0.386235
 O        -0.205046        -0.660538        -0.435110
 C        -1.639341         3.274976         1.083388
 H        -3.209574         5.525746         1.325796
 H        -3.716186         3.350597        -0.052119
 H        -3.158351         2.838453         2.835612
 H        -2.019414         0.378166         1.693248
 H        -3.274435         0.863946         0.539152
 H        -1.278345         1.884278        -0.735349
 H         0.750402         2.326725         0.333861
 H         0.229464         1.019605         1.626990
 H         1.370524         0.658387        -0.982486
 H        -0.798218         3.977946         1.376511
