19
Iteration:  3004charge 0 multiplicity 1
 O        -3.430036         4.739183         0.895493
 C        -3.369986         3.376956         1.125981
 C        -2.300948         3.037574         2.109702
 C        -2.242637         1.517234         2.339873
 C        -1.880308         1.236890         0.849058
 C        -0.530101         0.690883         0.722671
 C        -0.085385         0.441764        -0.701945
 O         1.064756         0.442652        -1.102065
 C        -1.982212         2.815716         0.651789
 H        -3.440155         4.998890        -0.040190
 H        -4.297685         2.849588         1.266017
 H        -1.991813         3.783251         2.727762
 H        -1.486981         1.135627         3.122514
 H        -3.112052         0.929763         2.749386
 H        -2.726508         0.774205         0.228572
 H         0.105029         1.446011         1.301153
 H        -0.460989        -0.166807         1.311323
 H        -0.857415         0.067043        -1.388423
 H        -1.482018         3.478215         0.042216
