19
Iteration:  2791charge 0 multiplicity 1
 O        -3.828807         4.574082         0.990077
 C        -3.333321         3.270871         0.997561
 C        -2.352159         3.048171         2.121848
 C        -2.248963         1.483674         2.265033
 C        -1.589602         1.438425         0.859336
 C        -0.051866         1.068414         0.858309
 C         0.258117         0.826349        -0.656361
 O         0.385999        -0.285434        -1.148097
 C        -1.864674         2.992389         0.648434
 H        -4.148456         4.954860         0.114780
 H        -4.009214         2.459822         0.739536
 H        -2.189773         3.832009         2.756120
 H        -1.657433         0.978021         2.938691
 H        -3.201805         0.878132         2.440797
 H        -2.043896         0.838848         0.034071
 H         0.711865         1.950527         1.179933
 H         0.174617         0.199801         1.363669
 H         0.367069         1.736955        -1.289485
 H        -1.057406         3.594227         0.306922
