19
Iteration:  3784
 O        -3.208931         4.943732         2.033056
 C        -2.987394         4.005094         1.014933
 C        -3.095614         2.548538         1.566566
 C        -2.926870         1.443198         0.492597
 C        -1.446273         2.105565         0.160029
 C        -0.313793         1.126859         0.536590
 C        -0.089374        -0.182862        -0.283925
 O         0.984284        -0.735763        -0.293839
 C        -1.781161         3.170214         1.318391
 H        -2.519834         5.583948         1.837653
 H        -3.282735         4.277622        -0.051606
 H        -3.662006         2.522997         2.543197
 H        -2.726697         0.381067         0.985859
 H        -3.653534         1.128608        -0.298157
 H        -1.204660         2.557161        -0.725679
 H         0.650366         1.494403         0.304254
 H        -0.271800         0.812827         1.616870
 H        -1.059657        -0.546547        -0.655548
 H        -1.286420         3.439441         2.188326
