19
Iteration:  1089
 O        -3.586346         4.718809         1.712538
 C        -3.208514         3.567645         0.915262
 C        -2.818291         2.466998         1.802320
 C        -2.425061         1.247021         0.923842
 C        -1.238940         2.086880         0.284009
 C         0.198009         1.487617         0.545699
 C         0.380240         0.294316        -0.316706
 O        -0.183268        -0.747287        -0.261823
 C        -1.780659         3.300262         1.070062
 H        -3.361950         5.484222         1.122821
 H        -3.687330         3.418281        -0.093270
 H        -2.834899         2.422180         2.988464
 H        -2.045572         0.402209         1.324013
 H        -3.358724         0.970818         0.458850
 H        -1.186935         2.031230        -0.909719
 H         0.947502         2.245841         0.404951
 H         0.324665         1.083164         1.594151
 H         1.095377         0.468542        -1.072845
 H        -1.205832         4.088274         1.510768
