19
Iteration:  3557charge 0 multiplicity 1
 O        -3.540640         4.770111         1.846105
 C        -3.107737         3.707299         0.979153
 C        -2.712586         2.461704         1.779353
 C        -2.474964         1.269856         0.883384
 C        -1.285820         2.092478         0.241826
 C         0.061206         1.471954         0.351681
 C         0.376935         0.094751        -0.131531
 O        -0.364809        -0.757074        -0.562609
 C        -1.583121         3.272812         1.250806
 H        -3.217180         5.623709         1.413007
 H        -3.616648         3.615500         0.024537
 H        -3.039892         2.542968         2.837941
 H        -2.133388         0.313206         1.458242
 H        -3.287428         0.989284         0.245617
 H        -1.486749         2.350541        -0.764843
 H         0.789058         2.221466        -0.022820
 H         0.277510         1.390727         1.362844
 H         1.483467        -0.112785         0.166436
 H        -0.917803         3.973081         1.710255
