19
Iteration:  2450charge 0 multiplicity 1
 O        -3.857139         4.437496         0.583669
 C        -3.472528         3.098402         1.081319
 C        -2.233672         3.161282         1.906036
 C        -1.833709         1.760179         2.551886
 C        -1.661743         1.207572         1.110231
 C        -0.254328         0.566259         0.909476
 C         0.409187         0.354333        -0.380265
 O         0.344119         1.092754        -1.365750
 C        -2.033685         2.627329         0.582129
 H        -4.147744         4.401142        -0.314652
 H        -4.289072         2.298313         1.345340
 H        -2.049159         4.117522         2.278852
 H        -0.981258         1.962526         3.051462
 H        -2.664706         1.330312         3.189989
 H        -2.420571         0.342129         0.875850
 H         0.473160         1.062205         1.468438
 H        -0.237434        -0.366491         1.491709
 H         0.987646        -0.566583        -0.515200
 H        -1.826137         3.255440        -0.324678
