19
Iteration:  4355
 O        -3.399739         4.659822         2.425607
 C        -2.714064         4.053322         1.251491
 C        -3.209737         2.810469         0.572944
 C        -2.235632         2.388346        -0.600198
 C        -1.025104         2.265574         0.456064
 C        -0.427011         0.871096         0.891848
 C         0.102026        -0.065404        -0.178891
 O         0.047502        -1.278348         0.102794
 C        -1.908590         2.850935         1.481886
 H        -2.664840         4.885525         3.001944
 H        -2.332240         4.876975         0.684113
 H        -4.152192         2.244515         0.682760
 H        -2.363666         1.313074        -1.039502
 H        -2.185410         2.988441        -1.517717
 H        -0.079638         2.875380         0.100209
 H         0.473665         1.085191         1.511118
 H        -1.187968         0.243832         1.452811
 H         0.590151         0.327406        -1.136992
 H        -1.782025         2.517999         2.561818
