19
Iteration:   906
 O        -3.709146         4.853133         1.917999
 C        -3.033128         3.905774         1.118458
 C        -2.987891         2.453783         1.582085
 C        -2.645083         1.418743         0.538144
 C        -1.374845         2.236241         0.132443
 C        -0.111774         1.260797         0.262694
 C        -0.112323        -0.170625        -0.226802
 O         0.895654        -0.866795        -0.012497
 C        -1.647988         3.322061         1.316991
 H        -3.354287         5.711134         1.665376
 H        -3.306875         3.893909         0.103157
 H        -3.281195         2.091936         2.572005
 H        -2.507661         0.337050         0.878765
 H        -3.427102         1.419635        -0.331322
 H        -1.414923         2.750195        -0.873497
 H         0.571945         1.813759        -0.373158
 H         0.365139         1.406441         1.215314
 H        -0.974125        -0.372503        -0.908971
 H        -1.009256         3.613576         2.125209
