19
Iteration:  4332
 O        -3.346067         4.491590         2.290451
 C        -2.647220         4.069678         1.186096
 C        -3.144562         2.800907         0.636610
 C        -2.227458         2.326849        -0.505174
 C        -1.001444         2.378097         0.484340
 C        -0.316261         1.071312         0.816451
 C         0.083868        -0.071315        -0.104822
 O        -0.103779        -1.276777         0.079323
 C        -2.027513         2.755185         1.575149
 H        -2.637922         4.645625         2.935735
 H        -2.183786         4.879226         0.659418
 H        -4.163645         2.415952         0.665074
 H        -2.391590         1.292859        -1.048749
 H        -2.240923         2.999386        -1.386432
 H        -0.346407         3.284093         0.097201
 H         0.644914         1.304934         1.308331
 H        -1.078165         0.603947         1.528608
 H         0.563184         0.312027        -1.081223
 H        -1.939167         2.402394         2.596385
