19
Iteration:  1928
 O        -3.479439         4.732430         0.729262
 C        -3.310928         3.264002         0.973734
 C        -2.325877         2.977905         2.187933
 C        -2.264452         1.445589         2.309779
 C        -1.741816         1.348618         0.865622
 C        -0.224057         0.725548         0.935868
 C         0.121144         0.112021        -0.364568
 O         0.463127         0.747721        -1.340656
 C        -1.919847         2.948128         0.703919
 H        -3.397177         4.717986        -0.231630
 H        -4.303478         2.733787         0.646149
 H        -2.196224         3.728315         2.977928
 H        -1.504794         1.021151         3.123811
 H        -3.337925         1.089476         2.572499
 H        -2.285261         0.755906         0.130307
 H         0.528679         1.573471         1.135493
 H        -0.286931        -0.011325         1.792495
 H        -0.037869        -1.028118        -0.552567
 H        -1.243562         3.497546         0.013087
