19
Iteration:  1778
 O        -3.231696         4.486448         0.401204
 C        -3.102198         3.133602         0.810819
 C        -2.222861         3.005850         2.081874
 C        -2.185737         1.568199         2.576955
 C        -1.851931         1.154025         1.103557
 C        -0.577467         0.382683         0.914877
 C         0.234588         0.654610        -0.302057
 O        -0.100180         1.248315        -1.277007
 C        -1.672852         2.600255         0.715970
 H        -2.951873         4.628191        -0.513128
 H        -4.024539         2.590059         0.660562
 H        -2.049236         3.864648         2.812247
 H        -1.462407         1.291786         3.290963
 H        -3.237398         1.307230         2.942092
 H        -2.660066         0.722966         0.522651
 H         0.093917         0.675937         1.838482
 H        -0.578450        -0.779547         0.981496
 H         1.269804         0.494680        -0.206768
 H        -0.879601         3.084652         0.023840
