19
Iteration:  3809
 O        -3.274774         4.939992         1.931770
 C        -2.826778         3.993617         1.062013
 C        -3.170072         2.636617         1.632036
 C        -2.977190         1.531823         0.509880
 C        -1.541707         1.907647         0.237422
 C        -0.413468         1.032847         0.673672
 C        -0.071847        -0.137854        -0.296690
 O         1.065666        -0.596883        -0.397260
 C        -1.622621         3.079159         1.249076
 H        -2.676252         5.659526         1.881235
 H        -3.291509         4.084279         0.050737
 H        -3.541109         2.572605         2.590084
 H        -3.163260         0.473731         0.897256
 H        -3.534300         1.460570        -0.462116
 H        -1.304156         2.357268        -0.742787
 H         0.585213         1.522921         0.898571
 H        -0.799271         0.507307         1.645965
 H        -1.061096        -0.531353        -0.648870
 H        -0.678036         3.458023         1.759763
