19
Iteration:   907charge 0 multiplicity 1
 O        -3.713947         4.851024         1.914372
 C        -3.035327         3.908238         1.119970
 C        -2.979634         2.451911         1.568988
 C        -2.649061         1.425576         0.549365
 C        -1.374153         2.232779         0.124847
 C        -0.108625         1.266368         0.276313
 C        -0.116072        -0.171791        -0.232201
 O         0.892244        -0.865198        -0.010451
 C        -1.638578         3.313611         1.321324
 H        -3.346254         5.696593         1.671171
 H        -3.307346         3.919541         0.105271
 H        -3.269548         2.058916         2.578619
 H        -2.511318         0.314191         0.886716
 H        -3.419064         1.445097        -0.308219
 H        -1.444235         2.772500        -0.884593
 H         0.522666         1.810314        -0.395462
 H         0.378102         1.414631         1.204268
 H        -0.946792        -0.364264        -0.920705
 H        -1.002242         3.606750         2.106184
