19
Iteration:  1428
 O        -3.751783         4.610377         1.554203
 C        -3.134816         3.480240         0.928187
 C        -2.527685         2.604830         1.969321
 C        -2.333590         1.228073         1.287785
 C        -1.298465         2.074160         0.285328
 C         0.104001         1.517519         0.417181
 C         0.156178         0.031618         0.206130
 O        -0.120987        -0.492564        -0.862871
 C        -1.658613         3.396843         0.991833
 H        -3.851899         5.305474         0.899594
 H        -3.636600         3.016866         0.093600
 H        -2.548210         2.857821         3.032104
 H        -1.721613         0.568055         1.875035
 H        -3.213202         0.720177         0.792308
 H        -1.616297         1.787552        -0.712668
 H         0.742131         1.897458        -0.400532
 H         0.508176         1.795719         1.481731
 H         0.264199        -0.562997         1.094688
 H        -0.988850         4.306103         0.963230
