19
Iteration:  3291charge 0 multiplicity 1
 O        -3.119735         4.822161         0.994333
 C        -3.032322         3.425537         0.961177
 C        -2.474475         2.788147         2.217166
 C        -2.568993         1.290567         2.073192
 C        -1.713460         1.314561         0.730226
 C        -0.320307         0.860823         0.929073
 C         0.368091         0.618105        -0.329111
 O        -0.155038         0.337404        -1.381608
 C        -1.656294         2.845780         0.726671
 H        -3.405611         5.079426         0.085262
 H        -3.928796         2.958914         0.437225
 H        -2.303567         3.287559         3.171713
 H        -2.067595         0.781394         2.835010
 H        -3.519591         0.769455         1.995366
 H        -2.025619         0.932129        -0.204350
 H         0.126792         1.451980         1.773451
 H        -0.443749        -0.119095         1.458562
 H         1.459988         0.592465        -0.154541
 H        -1.048544         3.599237         0.273551
