19
Iteration:   622charge 0 multiplicity 1
 O        -3.290555         5.036792         1.444292
 C        -2.829394         3.846504         0.914511
 C        -3.195234         2.571733         1.555052
 C        -2.918820         1.329232         0.609722
 C        -1.465182         1.813934         0.563821
 C        -0.337575         0.779766         1.104765
 C         0.021318        -0.056202        -0.063846
 O         0.966648        -0.043883        -0.864555
 C        -1.741482         3.021682         1.523457
 H        -2.790440         5.810326         1.073751
 H        -2.907717         3.880899        -0.217743
 H        -3.831379         2.613465         2.497375
 H        -3.167619         0.474728         1.211404
 H        -3.497314         1.328895        -0.306657
 H        -1.150501         2.073097        -0.410740
 H         0.606319         1.231737         1.497356
 H        -0.905558         0.156427         1.878056
 H        -0.755257        -0.898467        -0.154412
 H        -1.116630         3.363869         2.371695
