19
Iteration:  3013charge 0 multiplicity 1
 O        -3.395521         4.770134         0.859316
 C        -3.306040         3.342435         1.118102
 C        -2.263398         2.972675         2.111691
 C        -2.280686         1.486956         2.390692
 C        -1.918254         1.260756         0.875505
 C        -0.498855         0.684888         0.744555
 C        -0.132784         0.456834        -0.669294
 O         1.003371         0.525625        -1.077858
 C        -1.992164         2.774094         0.625226
 H        -3.578060         4.933245        -0.080487
 H        -4.237240         2.779032         0.935770
 H        -1.867074         3.729770         2.748993
 H        -1.480999         1.293089         3.012719
 H        -3.269970         1.073500         2.729356
 H        -2.491258         0.655873         0.176069
 H         0.278051         1.462291         1.134492
 H        -0.171656        -0.352889         1.147460
 H        -0.978893         0.209726        -1.383416
 H        -1.519769         3.352709        -0.094459
