19
Iteration:  1729
 O        -3.315825         4.730064         0.627644
 C        -3.211708         3.285741         0.928604
 C        -2.299390         3.044533         2.063630
 C        -2.333206         1.421980         2.408468
 C        -1.726054         1.199169         0.978206
 C        -0.307268         0.539167         1.013988
 C         0.413458         0.480875        -0.297470
 O        -0.023404         0.831203        -1.400395
 C        -1.839138         2.730159         0.683753
 H        -3.613041         4.916630        -0.284279
 H        -4.128191         2.664932         0.636150
 H        -2.118626         3.870491         2.730643
 H        -1.672502         1.235185         3.374151
 H        -3.390619         1.137994         2.530638
 H        -2.421574         0.420916         0.348133
 H         0.309275         1.079881         1.754918
 H        -0.395217        -0.499744         1.525080
 H         1.414222         0.038023        -0.452305
 H        -1.242412         3.358469         0.017005
