19
Iteration:  2565charge 0 multiplicity 1
 O        -3.559772         4.316074         0.351382
 C        -3.307788         2.978888         0.958314
 C        -2.361608         3.110463         2.110371
 C        -1.946560         1.691680         2.655035
 C        -1.557057         1.219765         1.160478
 C        -0.174812         0.798733         0.988338
 C         0.290750         0.507292        -0.435144
 O        -0.126877         1.130550        -1.398136
 C        -1.890781         2.591775         0.707203
 H        -3.641250         4.085098        -0.562278
 H        -4.183028         2.176383         0.733200
 H        -2.310271         4.045921         2.709082
 H        -0.874288         1.983745         3.179890
 H        -2.577006         1.085066         3.223431
 H        -2.385756         0.452956         0.766801
 H         0.601284         1.423017         1.386039
 H        -0.000183        -0.182161         1.483916
 H         0.828580        -0.433033        -0.547912
 H        -1.437624         3.058393        -0.197019
