19
Iteration:   200
 O        -3.577277         4.923793         1.927408
 C        -2.953504         3.966167         0.951339
 C        -3.109956         2.458522         1.132844
 C        -2.461995         1.709061         0.016363
 C        -1.089267         2.070882         0.312847
 C        -0.343540         0.988382         1.094251
 C         0.492865        -0.043504         0.252197
 O         0.060169        -0.811170        -0.582400
 C        -1.690966         3.150747         1.443706
 H        -2.867119         5.215012         2.572240
 H        -2.895953         4.546215         0.011198
 H        -3.953691         2.185606         1.847434
 H        -2.575297         0.568736        -0.007860
 H        -2.861867         2.043514        -0.915507
 H        -0.562932         2.517022        -0.596505
 H         0.278235         1.431235         1.793377
 H        -1.069446         0.419144         1.640313
 H         1.543485        -0.087618         0.509237
 H        -1.221546         3.329309         2.401711
