19
Iteration:   246
 O        -3.392328         4.832527         1.809651
 C        -2.846206         3.889423         0.969769
 C        -3.161553         2.405794         1.199820
 C        -2.540079         1.638952        -0.024774
 C        -1.055967         2.101729         0.411512
 C        -0.293250         1.044170         1.114663
 C         0.450204         0.083569         0.280545
 O        -0.101211        -0.639849        -0.537065
 C        -1.696750         3.092581         1.397184
 H        -3.852960         4.430335         2.590304
 H        -2.837705         4.169061        -0.135239
 H        -4.098512         2.173113         1.641979
 H        -2.705421         0.579979        -0.248758
 H        -2.700836         2.189227        -0.876520
 H        -0.512456         2.579424        -0.484789
 H         0.502084         1.426915         1.695519
 H        -0.900222         0.507824         1.806334
 H         1.554229         0.043938         0.398425
 H        -1.160527         3.322387         2.288100
