19
Iteration:  3637charge 0 multiplicity 1
 O        -3.348867         4.673826         2.037608
 C        -3.088786         3.677637         1.037100
 C        -2.748040         2.394725         1.686942
 C        -2.498448         1.364916         0.557317
 C        -1.339174         2.139004         0.048286
 C         0.015968         1.471481         0.438014
 C         0.189285         0.277803        -0.376788
 O        -0.206993        -0.804823         0.037858
 C        -1.615531         3.208403         1.065564
 H        -3.087999         5.574338         1.645381
 H        -3.731520         3.700396         0.166968
 H        -3.336562         2.289159         2.582095
 H        -2.253480         0.521810         1.108670
 H        -3.291193         1.096590        -0.197172
 H        -1.414359         2.427003        -0.923406
 H         0.827721         2.176518         0.292200
 H        -0.097961         1.311993         1.420680
 H         0.764821         0.440882        -1.210290
 H        -0.804118         3.711625         1.678356
