19
Iteration:  2400
 O        -3.653311         4.323637         0.499697
 C        -3.353277         3.097176         1.026169
 C        -2.145980         3.119766         2.019481
 C        -1.968344         1.675780         2.574859
 C        -1.786232         1.112572         1.133402
 C        -0.264482         0.921904         0.958781
 C         0.332300         0.522583        -0.363042
 O         0.180367         1.062468        -1.445448
 C        -2.031575         2.454628         0.614273
 H        -3.924706         4.294845        -0.446992
 H        -4.172348         2.519128         1.281875
 H        -1.748344         4.065268         2.305988
 H        -1.140544         1.504034         3.451808
 H        -2.986129         1.527302         2.976081
 H        -2.199798         0.272053         0.660834
 H         0.444583         1.836490         1.308224
 H         0.084398         0.146677         1.718599
 H         0.976362        -0.303976        -0.293523
 H        -1.491038         2.724948        -0.238063
