19
Iteration:  4483charge 0 multiplicity 1
 O        -3.039695         5.001907         2.017998
 C        -2.445931         4.023433         1.290017
 C        -3.228785         2.968032         0.575158
 C        -2.460094         2.137260        -0.405419
 C        -1.339343         1.953020         0.756919
 C        -0.674590         0.565601         0.994170
 C        -0.161760        -0.063629        -0.292541
 O         0.763307        -0.817203        -0.193031
 C        -2.309202         2.634845         1.798394
 H        -2.506292         5.169339         2.843254
 H        -1.483459         4.391495         0.733684
 H        -4.321652         3.227634         0.396004
 H        -2.979594         1.103424        -0.514236
 H        -2.087482         2.589825        -1.411767
 H        -0.515208         2.613729         0.646714
 H         0.230084         0.582897         1.652375
 H        -1.462984        -0.113287         1.461527
 H        -0.764098         0.094070        -1.200910
 H        -2.552533         2.338369         2.831769
