19
Iteration:   113
 O        -3.295314         5.027372         1.750062
 C        -2.763702         3.934315         0.961406
 C        -3.269524         2.505823         0.864564
 C        -2.409161         1.510645        -0.012465
 C        -1.154265         1.952524         0.715099
 C        -0.121811         0.977596         1.161746
 C         0.468249         0.269931         0.009389
 O        -0.201632        -0.631795        -0.494716
 C        -1.937087         2.860339         1.669301
 H        -3.756793         4.535463         2.489652
 H        -2.326738         4.306921         0.001201
 H        -4.290639         2.217844         1.279078
 H        -2.631515         0.396154         0.057220
 H        -2.458639         1.630621        -1.049232
 H        -0.580292         2.635942         0.032243
 H         0.646722         1.542284         1.709566
 H        -0.605889         0.234898         1.824134
 H         1.494367         0.678845        -0.367525
 H        -1.628097         2.942505         2.730515
