19
Iteration:   369
 O        -3.561268         4.781349         1.409530
 C        -2.717308         3.818816         0.943437
 C        -3.193872         2.445475         1.261165
 C        -2.434888         1.592500         0.219076
 C        -1.025619         2.106662         0.716883
 C        -0.012903         1.052920         1.191915
 C         0.373446         0.076833         0.071760
 O        -0.318549        -0.430738        -0.772672
 C        -1.770345         2.912564         1.698972
 H        -3.060556         5.313102         2.080981
 H        -2.366392         4.085265        -0.122705
 H        -4.142221         2.207263         1.878519
 H        -2.618767         0.587739         0.409660
 H        -2.773213         1.752731        -0.774844
 H        -0.487988         2.749443        -0.071181
 H         0.891092         1.575745         1.514237
 H        -0.349585         0.572752         2.046340
 H         1.356145        -0.386663         0.193205
 H        -1.344253         3.442243         2.621707
