19
Iteration:  2965charge 0 multiplicity 1
 O        -3.721669         4.833668         1.073764
 C        -3.402632         3.423414         1.109193
 C        -2.367449         3.113138         2.122298
 C        -2.207873         1.530520         2.375792
 C        -1.851209         1.385694         0.801456
 C        -0.496564         0.704543         0.563325
 C         0.032888         0.267987        -0.839914
 O         1.231363         0.152780        -1.047921
 C        -1.966248         2.960431         0.697876
 H        -3.705358         5.072405         0.106182
 H        -4.368036         2.831153         1.139393
 H        -2.093948         3.862204         2.918290
 H        -1.373565         1.314228         3.099435
 H        -3.126864         1.073965         2.645207
 H        -2.552240         0.670264         0.376125
 H         0.324392         1.282535         0.946634
 H        -0.512430        -0.472677         1.081342
 H        -0.744714        -0.073363        -1.620318
 H        -1.192010         3.634524         0.121676
