19
Iteration:  1051
 O        -3.610775         4.797775         1.791612
 C        -3.141310         3.718188         1.015304
 C        -2.755107         2.377385         1.846215
 C        -2.546392         1.287898         0.821878
 C        -1.386432         2.076893         0.097807
 C        -0.016183         1.441239         0.485354
 C         0.441130         0.261676        -0.294034
 O         0.047389        -0.863263        -0.169352
 C        -1.712050         3.290437         1.037451
 H        -3.747263         5.580074         1.205889
 H        -3.564817         3.743932         0.025513
 H        -2.729403         2.297568         2.875770
 H        -2.158938         0.287441         1.326113
 H        -3.417344         1.071525         0.121530
 H        -1.434008         2.398757        -0.964399
 H         0.804980         2.212449         0.334219
 H         0.006160         1.080263         1.512013
 H         1.344592         0.500727        -0.861419
 H        -1.032367         3.994030         1.586115
