19
Iteration:  3340charge 0 multiplicity 1
 O        -3.351952         4.910949         1.163304
 C        -3.137175         3.550655         0.839200
 C        -2.627989         2.807751         2.180451
 C        -2.524238         1.299636         1.928492
 C        -1.582312         1.512895         0.788300
 C        -0.116449         0.870563         0.892875
 C         0.468824         0.445742        -0.455241
 O        -0.161728        -0.060582        -1.423350
 C        -1.657448         3.018822         1.018505
 H        -2.813921         5.437091         0.568129
 H        -3.837254         3.124922         0.150025
 H        -2.888300         3.334611         3.061465
 H        -2.109341         0.559178         2.704619
 H        -3.348313         0.773327         1.502217
 H        -1.978288         1.178908        -0.233244
 H         0.451070         1.466279         1.605295
 H        -0.200274        -0.169379         1.470694
 H         1.553870         0.476084        -0.541326
 H        -0.826378         3.740346         0.743860
