19
Iteration:  4947charge 0 multiplicity 1
 O        -3.643098         4.394856         1.989600
 C        -2.440693         4.073313         1.297043
 C        -2.672002         2.987923         0.241847
 C        -1.154917         2.726031        -0.345938
 C        -0.741238         2.074891         1.054604
 C        -0.741406         0.563968         1.455404
 C        -0.692356        -0.502227         0.236979
 O        -0.410166        -0.418445        -0.936395
 C        -2.106193         2.598699         1.546299
 H        -3.483141         4.299476         2.912674
 H        -1.665803         4.930266         1.130188
 H        -3.584101         2.837894        -0.305006
 H        -1.109430         2.041673        -1.241481
 H        -0.584252         3.706557        -0.607821
 H         0.261158         2.609865         1.326303
 H         0.228298         0.462480         1.982094
 H        -1.540304         0.248281         2.225861
 H        -0.678787        -1.463498         0.760644
 H        -2.758875         2.007877         2.335533
