19
Iteration:  1899charge 0 multiplicity 1
 O        -3.481714         4.681958         0.680549
 C        -3.196542         3.234486         0.867333
 C        -2.343207         3.025156         2.091223
 C        -2.348020         1.524137         2.435212
 C        -1.722804         1.219746         1.012846
 C        -0.257250         0.606659         0.965495
 C         0.134281         0.272401        -0.372972
 O         0.286228         0.966556        -1.361405
 C        -1.759761         2.740025         0.674884
 H        -2.977746         4.865244        -0.159209
 H        -4.100151         2.770318         0.674514
 H        -2.037542         3.864869         2.684728
 H        -1.793290         1.294507         3.237735
 H        -3.347462         1.199836         2.753619
 H        -2.477621         0.634524         0.311060
 H         0.532031         1.177548         1.356330
 H        -0.358784        -0.276736         1.530606
 H         0.258531        -0.814484        -0.499712
 H        -0.974303         3.063755         0.084847
