19
Iteration:  3982
 O        -2.939826         5.085546         1.473190
 C        -2.669339         3.812012         0.881715
 C        -3.308828         2.650586         1.456748
 C        -2.997400         1.383992         0.489406
 C        -1.470441         1.694081         0.735540
 C        -0.469573         0.568721         1.108985
 C        -0.073048        -0.129968        -0.123808
 O         0.731327         0.308927        -0.882008
 C        -1.692795         2.878310         1.650044
 H        -1.987662         5.409626         1.539217
 H        -2.581095         3.742067        -0.247310
 H        -4.024740         2.714433         2.241008
 H        -3.396318         0.380505         0.792849
 H        -3.137005         1.702619        -0.463067
 H        -1.047010         2.168136        -0.258838
 H         0.352987         0.932333         1.659280
 H        -0.967067        -0.238815         1.633110
 H        -0.698778        -1.044793        -0.186425
 H        -1.298690         3.244013         2.654067
