19
Iteration:   329charge 0 multiplicity 1
 O        -3.591389         4.895167         1.619307
 C        -2.724840         3.888613         0.998878
 C        -3.250083         2.515067         1.009160
 C        -2.403532         1.493210         0.168362
 C        -0.999530         2.064767         0.695130
 C         0.074245         1.115515         1.144929
 C         0.417945         0.035242         0.050779
 O        -0.344078        -0.535062        -0.679489
 C        -1.872735         2.887635         1.725243
 H        -3.412473         5.745728         1.226004
 H        -2.261508         4.228774         0.088899
 H        -4.122655         2.218933         1.591487
 H        -2.436432         0.461325         0.684255
 H        -2.467209         1.356585        -0.987227
 H        -0.555587         2.750394        -0.039982
 H         1.054241         1.702175         1.414834
 H        -0.158816         0.357386         2.013815
 H         1.544008        -0.139999         0.013404
 H        -1.469520         3.135791         2.664084
