19
Iteration:  4099
 O        -3.134081         4.924804         1.866525
 C        -2.667554         3.943314         1.035473
 C        -3.238682         2.564755         1.207985
 C        -2.726490         1.623103         0.060011
 C        -1.316312         2.006999         0.479322
 C        -0.436254         0.871802         1.077853
 C         0.291087        -0.058352         0.238375
 O         0.157177        -0.351900        -0.925649
 C        -1.744573         2.833711         1.583124
 H        -2.372526         5.429833         2.166953
 H        -2.468866         4.210760         0.022028
 H        -4.177029         2.557815         1.760710
 H        -2.938164         0.597838         0.306877
 H        -2.925267         1.831162        -1.062379
 H        -0.785687         2.530572        -0.251284
 H         0.275805         1.445066         1.721676
 H        -0.959443         0.171218         1.797614
 H         1.039487        -0.631923         0.857926
 H        -1.317600         2.855532         2.647432
