19
Iteration:  2944
 O        -3.786825         4.737141         1.138972
 C        -3.309930         3.438834         1.081083
 C        -2.383577         3.086108         2.187704
 C        -2.216362         1.566076         2.305968
 C        -1.797542         1.446968         0.722010
 C        -0.455453         0.755483         0.547393
 C         0.007995         0.292671        -0.809057
 O         1.185206         0.016016        -0.991593
 C        -1.924357         3.026812         0.667654
 H        -4.169525         4.942911         0.300981
 H        -4.178946         2.744696         0.757731
 H        -1.952940         3.764438         3.000234
 H        -1.305211         1.401199         2.779847
 H        -3.067861         1.017621         2.675448
 H        -2.657010         1.086843         0.137349
 H         0.317153         1.411072         0.982212
 H        -0.549245        -0.166679         1.255417
 H        -0.812380         0.153936        -1.541515
 H        -1.345153         3.834681         0.053646
