19
Iteration:  1122
 O        -3.719741         4.659207         1.558445
 C        -3.020129         3.619009         0.861851
 C        -2.766107         2.376923         1.780550
 C        -2.380041         1.148270         1.042898
 C        -1.228960         2.011717         0.261064
 C         0.179049         1.541240         0.566487
 C         0.311236         0.398411        -0.350217
 O        -0.348969        -0.615744        -0.262914
 C        -1.625487         3.235181         1.223209
 H        -3.235080         5.518448         1.454176
 H        -3.225407         3.403489        -0.197031
 H        -3.113933         2.615231         2.876001
 H        -1.799325         0.486196         1.534077
 H        -3.231575         0.635295         0.620883
 H        -1.543831         2.176216        -0.737552
 H         0.760858         2.397376         0.351891
 H         0.359353         1.163633         1.588931
 H         0.966647         0.633884        -1.195838
 H        -0.826611         3.872853         1.573217
