19
Iteration:  1001charge 0 multiplicity 1
 O        -3.425615         4.775277         1.922164
 C        -3.209064         3.744846         0.932820
 C        -2.883489         2.443188         1.678494
 C        -2.642576         1.247062         0.684966
 C        -1.434674         2.055295         0.140895
 C        -0.027035         1.502327         0.476908
 C         0.322158         0.285461        -0.385036
 O         0.296826        -0.889420         0.034347
 C        -1.727349         3.219746         1.094654
 H        -2.838618         5.517233         1.646319
 H        -3.996653         3.739391         0.103120
 H        -3.246196         2.448910         2.704686
 H        -2.351162         0.372480         1.139000
 H        -3.462794         1.078610         0.024487
 H        -1.390634         2.388498        -0.913823
 H         0.731798         2.244735         0.195205
 H         0.189202         1.163088         1.521802
 H         0.399805         0.504412        -1.523566
 H        -1.074224         3.954925         1.561274
