19
Iteration:  3047charge 0 multiplicity 1
 O        -3.251243         4.744598         0.768675
 C        -3.230805         3.292465         0.998971
 C        -2.197233         2.992569         2.045662
 C        -2.416555         1.528498         2.467053
 C        -1.961602         1.092028         0.986555
 C        -0.531678         0.573252         0.867661
 C        -0.156429         0.594638        -0.616659
 O         0.884955         0.821376        -1.214360
 C        -1.875529         2.628963         0.663542
 H        -3.804015         4.662724        -0.058570
 H        -4.161666         2.748720         0.794677
 H        -1.741177         3.682140         2.650542
 H        -1.767380         1.244630         3.273193
 H        -3.464300         1.309885         2.820281
 H        -2.773528         0.549578         0.519891
 H         0.259386         1.274979         1.389452
 H        -0.190455        -0.536100         1.190865
 H        -1.070363         0.156678        -1.146591
 H        -1.280219         3.045424        -0.079249
