19
Iteration:  2108charge 0 multiplicity 1
 O        -3.803953         4.696606         1.154856
 C        -3.469964         3.345860         1.190029
 C        -2.336794         3.045914         2.050098
 C        -2.123343         1.591207         2.191089
 C        -1.716488         1.444889         0.674843
 C        -0.238175         0.931069         0.678365
 C         0.293852         0.698654        -0.644272
 O         0.800933        -0.349407        -1.010504
 C        -2.052799         2.992963         0.528080
 H        -4.224318         4.940840         0.311910
 H        -4.317725         2.616175         1.166407
 H        -1.945250         3.882094         2.636287
 H        -1.376100         1.194673         2.811333
 H        -3.079151         0.912968         2.453990
 H        -2.363055         0.687829         0.295114
 H         0.386901         1.688997         1.142600
 H        -0.242657        -0.074290         1.284091
 H         0.199787         1.580413        -1.418285
 H        -1.577570         3.990401         0.177321
