19
Iteration:  2028charge 0 multiplicity 1
 O        -3.766736         4.694115         0.957608
 C        -3.378407         3.384976         1.088855
 C        -2.464706         2.959657         2.232513
 C        -2.131615         1.524134         2.299170
 C        -1.776251         1.573789         0.819904
 C        -0.323910         1.017266         0.551417
 C        -0.044688         0.285418        -0.753728
 O         1.083175        -0.077921        -1.094240
 C        -1.927948         3.053975         0.806930
 H        -3.593991         4.919125         0.037707
 H        -4.146819         2.624579         0.665756
 H        -2.195726         3.621846         3.049608
 H        -1.211416         1.400009         2.865824
 H        -2.970439         0.773038         2.563715
 H        -2.590227         1.158392         0.279141
 H         0.454992         1.760684         0.867540
 H        -0.299222         0.049316         1.232996
 H        -0.888377        -0.048443        -1.338148
 H        -1.356921         3.886722         0.606476
