19
Iteration:  2795charge 0 multiplicity 1
 O        -3.816676         4.599297         0.986465
 C        -3.346217         3.266845         0.994561
 C        -2.387050         3.028894         2.117896
 C        -2.223537         1.489829         2.244784
 C        -1.605083         1.440712         0.833125
 C        -0.054070         1.093629         0.878057
 C         0.220232         0.821268        -0.667827
 O         0.410986        -0.292433        -1.131680
 C        -1.856814         2.959197         0.683515
 H        -4.153436         5.037729         0.226407
 H        -3.984064         2.444660         0.726082
 H        -2.176697         3.908476         2.809608
 H        -1.500868         0.932143         2.902481
 H        -3.137615         0.887776         2.396723
 H        -2.133288         0.878293         0.075721
 H         0.563665         1.927927         1.067796
 H         0.386350         0.102019         1.369005
 H         0.375593         1.729638        -1.316196
 H        -1.048300         3.618070         0.243908
