19
Iteration:  1074
 O        -3.543688         4.752152         1.716089
 C        -3.294049         3.616655         0.980388
 C        -2.751996         2.425543         1.841635
 C        -2.490868         1.283054         0.873310
 C        -1.295852         2.130537         0.184167
 C         0.139106         1.493624         0.602102
 C         0.448994         0.229955        -0.307912
 O        -0.095814        -0.860571        -0.266375
 C        -1.740417         3.305525         1.072705
 H        -3.623278         5.549940         1.205135
 H        -3.938084         3.412667         0.153005
 H        -3.112908         2.400819         2.810876
 H        -2.088590         0.359383         1.485866
 H        -3.150829         0.929155         0.025543
 H        -1.534034         2.494049        -0.796470
 H         0.849231         2.274342         0.260382
 H         0.195304         1.406668         1.686962
 H         1.187001         0.485227        -1.096819
 H        -1.068123         4.164474         1.348539
