19
Iteration:  3703charge 0 multiplicity 1
 O        -3.538505         4.741040         2.038201
 C        -2.962231         3.831861         1.088742
 C        -2.838495         2.423422         1.628288
 C        -2.666020         1.464279         0.452159
 C        -1.290880         2.367725         0.160259
 C        -0.040794         1.367199         0.294805
 C        -0.190228        -0.035755        -0.446104
 O         0.403503        -0.986027         0.075584
 C        -1.587247         3.313081         1.287910
 H        -3.148941         5.562179         1.812989
 H        -3.367667         3.856577         0.093092
 H        -3.404181         2.190061         2.513858
 H        -2.205130         0.610818         0.765260
 H        -3.446098         1.243867        -0.312639
 H        -1.232959         2.901240        -0.724725
 H         0.968609         1.697831         0.032906
 H         0.119930         1.009585         1.239317
 H        -0.732428        -0.293126        -1.485977
 H        -0.803394         3.923158         1.906442
