19
Iteration:   130
 O        -3.210995         4.965350         1.862670
 C        -2.714004         3.943162         0.936570
 C        -3.280555         2.436883         0.947596
 C        -2.522393         1.503399        -0.032117
 C        -1.113671         2.159577         0.503668
 C        -0.140513         1.044482         1.241753
 C         0.496603         0.205125         0.100882
 O        -0.148161        -0.665935        -0.525801
 C        -2.007997         2.844610         1.574675
 H        -4.190649         4.874408         2.094365
 H        -2.323492         4.356798         0.036319
 H        -4.177732         2.151061         1.390123
 H        -2.565546         0.495143         0.350656
 H        -2.782780         1.482881        -1.245793
 H        -0.498135         2.692493        -0.249195
 H         0.598987         1.496281         1.969431
 H        -0.827146         0.379116         1.794529
 H         1.503991         0.404720        -0.264236
 H        -1.927442         2.812802         2.680681
