19
Iteration:  4642
 O        -3.100951         4.863335         2.132207
 C        -2.282618         4.160258         1.244922
 C        -3.052450         3.037894         0.637919
 C        -2.446596         2.126916        -0.469042
 C        -1.266740         1.730802         0.495392
 C        -1.267781         0.306966         0.905290
 C        -0.202401        -0.480665         0.211447
 O         0.820629        -0.085910        -0.318713
 C        -1.977940         2.730750         1.671347
 H        -2.570674         5.216351         2.898782
 H        -1.514984         4.689722         0.701301
 H        -4.151917         3.158776         0.796843
 H        -3.253977         1.347965        -0.560839
 H        -2.244545         2.540835        -1.495159
 H        -0.266246         1.908679         0.175680
 H        -1.185315         0.247926         1.996431
 H        -2.238035        -0.133168         0.694111
 H        -0.470335        -1.580446        -0.046146
 H        -1.952572         2.409237         2.690972
