19
Iteration:  4067
 O        -3.152281         5.051216         1.828298
 C        -2.763924         4.001370         0.956542
 C        -3.201562         2.623156         1.312326
 C        -2.817630         1.613218         0.166268
 C        -1.298594         1.894489         0.554155
 C        -0.411256         0.639664         1.150711
 C         0.247425        -0.320504         0.210385
 O         0.375431        -0.099784        -1.024191
 C        -1.788204         2.919708         1.514806
 H        -2.379241         5.613130         1.976220
 H        -2.802418         4.310512        -0.081368
 H        -4.091156         2.521731         1.923185
 H        -3.094102         0.630234         0.551809
 H        -3.192965         1.600531        -0.963560
 H        -0.715853         2.358231        -0.178089
 H         0.418464         1.181729         1.756390
 H        -0.918483        -0.107350         1.857674
 H         0.555715        -1.312708         0.577073
 H        -1.261507         3.129309         2.538015
