19
Iteration:  1616charge 0 multiplicity 1
 O        -3.601278         4.772623         1.047236
 C        -3.130002         3.448827         0.827522
 C        -2.603953         2.889556         2.182502
 C        -2.382491         1.373236         1.999713
 C        -1.584875         1.573070         0.745081
 C        -0.142883         1.016318         0.802957
 C         0.525038         0.429479        -0.371595
 O        -0.013379        -0.174852        -1.296750
 C        -1.672185         3.075585         0.966271
 H        -3.794413         5.199145         0.168515
 H        -3.796044         2.811782         0.224927
 H        -2.906587         3.422916         3.063562
 H        -1.826022         1.043037         2.861347
 H        -3.336561         0.861898         2.006959
 H        -2.173481         1.049371        -0.124569
 H         0.560006         1.802617         1.111265
 H        -0.046639         0.091596         1.483607
 H         1.574963         0.326892        -0.180160
 H        -0.859193         3.746738         0.727302
