19
Iteration:   481charge 0 multiplicity 1
 O        -3.389565         4.985890         1.737148
 C        -2.900743         3.920884         0.936766
 C        -3.180206         2.421027         1.423366
 C        -2.611405         1.404973         0.343268
 C        -1.244404         2.054989         0.400190
 C        -0.337014         0.985175         1.004663
 C         0.161173        -0.246732         0.276087
 O         0.503034        -0.262006        -0.870795
 C        -1.766819         3.061035         1.424688
 H        -3.067938         5.836717         1.323230
 H        -3.102988         4.074406        -0.188930
 H        -3.773056         2.170340         2.274508
 H        -2.456437         0.386014         0.780243
 H        -3.299713         1.152534        -0.452139
 H        -0.893744         2.604247        -0.568488
 H         0.594786         1.491887         1.306190
 H        -0.822842         0.677556         1.852985
 H         0.458724        -1.017332         1.080167
 H        -1.216309         3.417258         2.230778
