19
Iteration:  2952charge 0 multiplicity 1
 O        -3.770596         4.798551         1.113884
 C        -3.387595         3.436058         1.123816
 C        -2.372959         3.084939         2.190258
 C        -2.196269         1.617852         2.257711
 C        -1.823100         1.418121         0.812371
 C        -0.458308         0.742874         0.517636
 C         0.015592         0.240774        -0.819280
 O         1.207465         0.081049        -1.008825
 C        -1.953107         2.944898         0.690762
 H        -4.017013         5.067791         0.234541
 H        -4.062665         2.688532         0.718477
 H        -2.032471         3.877244         2.721359
 H        -1.290827         1.217090         2.967325
 H        -3.044928         1.036682         2.559448
 H        -2.683141         1.113008         0.183829
 H         0.355184         1.234955         0.976141
 H        -0.495896        -0.266029         1.326856
 H        -0.732531         0.177880        -1.694813
 H        -1.177616         3.555052         0.239646
