19
Iteration:  2738
 O        -3.822628         4.539996         0.750295
 C        -3.358926         3.220980         1.008806
 C        -2.424485         2.980981         2.216764
 C        -1.997190         1.603132         2.458776
 C        -1.630872         1.475817         0.886206
 C        -0.227607         0.889973         0.849243
 C         0.468291         0.781597        -0.529505
 O         0.206721        -0.050346        -1.368491
 C        -1.862560         2.982527         0.709704
 H        -3.906172         4.611604        -0.245135
 H        -4.004918         2.444272         0.761353
 H        -2.138691         3.671804         2.893079
 H        -1.148234         1.597001         3.094043
 H        -2.771073         0.768880         2.784417
 H        -2.289553         0.929403         0.240522
 H         0.423959         1.447063         1.611113
 H        -0.256501        -0.145901         1.339936
 H         1.356549         1.498777        -0.736372
 H        -1.349042         3.712944         0.119064
