19
Iteration:  3626charge 0 multiplicity 1
 O        -3.296054         4.661255         1.989229
 C        -3.067988         3.654685         1.059237
 C        -2.840985         2.371238         1.669228
 C        -2.526188         1.291161         0.642326
 C        -1.302438         2.176930         0.006249
 C        -0.030727         1.541601         0.453320
 C         0.289878         0.300037        -0.291877
 O        -0.307996        -0.750985        -0.029297
 C        -1.599661         3.168721         1.071050
 H        -2.909067         5.486900         1.615292
 H        -3.622985         3.737908         0.128196
 H        -3.163238         2.057436         2.668181
 H        -2.047338         0.488443         1.112559
 H        -3.390865         0.880143         0.056530
 H        -1.320112         2.522738        -0.962966
 H         0.775716         2.259442         0.325100
 H        -0.071019         1.234298         1.417407
 H         0.853756         0.330601        -1.150820
 H        -0.843413         3.950029         1.363577
