19
Iteration:  2906
 O        -3.807301         4.658652         1.132669
 C        -3.314577         3.382465         1.081674
 C        -2.379824         3.037031         2.213063
 C        -2.252896         1.535844         2.189182
 C        -1.704589         1.552293         0.672213
 C        -0.333468         0.939292         0.629765
 C        -0.003017         0.446000        -0.749303
 O         1.009241        -0.185318        -0.983413
 C        -1.909254         3.103575         0.677843
 H        -4.188067         4.914667         0.247680
 H        -4.012760         2.578743         0.930868
 H        -1.895652         3.683709         2.952668
 H        -1.474663         1.231769         3.013328
 H        -3.142256         0.902417         2.422393
 H        -2.215075         0.912017        -0.070778
 H         0.550394         1.551722         0.936001
 H        -0.120441        -0.118544         1.285188
 H        -0.762558         0.529037        -1.584438
 H        -1.505824         3.876527         0.099430
