19
Iteration:  3113charge 0 multiplicity 1
 O        -3.175632         4.623630         0.512962
 C        -3.058526         3.278403         0.949066
 C        -2.317950         3.024136         2.186785
 C        -2.176466         1.523584         2.501816
 C        -1.949020         1.122528         1.042611
 C        -0.697805         0.255296         0.788251
 C        -0.179928         0.430131        -0.615286
 O         0.492786         1.396140        -0.996777
 C        -1.743536         2.560827         0.637024
 H        -2.824453         4.811937        -0.344169
 H        -3.966348         2.677104         0.724783
 H        -1.725009         3.850168         2.651654
 H        -1.295296         1.381187         3.003045
 H        -3.012230         0.975363         2.939334
 H        -2.789131         0.637611         0.594347
 H        -0.016309         0.862618         1.514280
 H        -0.973208        -0.831180         1.223658
 H        -0.363118        -0.460523        -1.287024
 H        -0.942283         3.078592         0.016574
