19
Iteration:  2053charge 0 multiplicity 1
 O        -3.871577         4.685215         1.059803
 C        -3.356972         3.356315         1.087306
 C        -2.415884         3.066745         2.226258
 C        -2.208777         1.570681         2.340216
 C        -1.756062         1.598720         0.800719
 C        -0.334888         0.909467         0.478819
 C         0.006685         0.352349        -0.910139
 O         1.094535        -0.185232        -0.951021
 C        -1.845524         3.039150         0.792537
 H        -3.985409         4.937209         0.151198
 H        -4.056152         2.558085         0.823132
 H        -2.360437         3.853753         3.031305
 H        -1.299502         1.356135         2.812952
 H        -3.151126         0.880363         2.679752
 H        -2.547680         1.184759         0.188902
 H         0.429049         1.618338         0.506339
 H        -0.150532         0.052434         1.181773
 H        -0.477994         0.597596        -1.835654
 H        -1.336332         3.828599         0.128266
