19
Iteration:  4019
 O        -3.091374         4.997404         1.561573
 C        -2.621175         3.846750         0.938472
 C        -3.228571         2.621445         1.402784
 C        -2.857045         1.468399         0.457167
 C        -1.316027         1.801926         0.539817
 C        -0.562469         0.609300         1.112547
 C        -0.093073        -0.194080         0.002076
 O         0.569386         0.258342        -0.855921
 C        -1.575747         2.874162         1.607142
 H        -2.555106         5.794213         1.442244
 H        -2.460569         4.042568        -0.152771
 H        -3.991354         2.614721         2.227164
 H        -3.053124         0.431636         0.774432
 H        -3.299736         1.423322        -0.584132
 H        -0.932497         2.133950        -0.433660
 H         0.203204         0.935010         1.856706
 H        -1.326636         0.039099         1.638852
 H        -0.444884        -1.221257        -0.070754
 H        -1.040525         2.991174         2.500661
