19
Iteration:  2362
 O        -3.583440         4.384056         0.499150
 C        -3.378035         3.048033         0.947529
 C        -2.252083         3.077894         1.952301
 C        -2.039800         1.612470         2.488891
 C        -1.514128         1.142958         1.065679
 C         0.039686         0.926241         1.062379
 C         0.304774         0.512139        -0.322715
 O        -0.191219         1.082743        -1.258215
 C        -1.968353         2.510943         0.579585
 H        -3.855703         4.310813        -0.401158
 H        -4.293841         2.309213         1.124726
 H        -1.829337         4.088534         2.358028
 H        -1.329235         1.453699         3.200731
 H        -3.019989         1.178838         2.730424
 H        -2.179752         0.233314         0.725666
 H         0.632158         1.820059         1.305582
 H         0.119511         0.050036         1.789804
 H         1.040708        -0.308583        -0.481114
 H        -1.534283         3.048566        -0.323899
