19
Iteration:  3869charge 0 multiplicity 1
 O        -2.979204         5.107410         1.678228
 C        -2.910183         3.893243         0.944685
 C        -3.179544         2.597700         1.610162
 C        -3.022257         1.407708         0.591621
 C        -1.472713         1.827314         0.442588
 C        -0.526767         0.687116         0.943491
 C        -0.125135        -0.101745        -0.294031
 O         1.063649        -0.127975        -0.631182
 C        -1.738994         2.995994         1.457355
 H        -2.271387         5.658730         1.324596
 H        -3.184373         4.055853        -0.073338
 H        -3.793406         2.291060         2.508120
 H        -3.270169         0.495951         1.087793
 H        -3.521660         1.481951        -0.345916
 H        -1.160077         2.241965        -0.622548
 H         0.384395         0.945887         1.472062
 H        -1.140863         0.095239         1.623762
 H        -0.813400        -0.428564        -1.086377
 H        -1.159118         3.402706         2.230585
