19
Iteration:  1989
 O        -3.651907         4.740854         1.010071
 C        -3.380902         3.329017         0.995668
 C        -2.511298         3.003207         2.139722
 C        -2.341991         1.538494         2.291045
 C        -1.643348         1.460765         0.933847
 C        -0.207246         0.972627         0.719887
 C        -0.025893         0.158442        -0.552044
 O         0.930072         0.201694        -1.331258
 C        -1.929862         2.978131         0.724457
 H        -3.658098         5.074358         0.085070
 H        -4.132472         2.644798         0.720252
 H        -2.189273         3.789319         2.869281
 H        -1.722150         1.282260         3.153332
 H        -3.234055         0.960140         2.418266
 H        -2.138374         0.631111         0.258167
 H         0.664615         1.645806         0.726680
 H         0.079324         0.245444         1.442934
 H        -0.872220        -0.635389        -0.650448
 H        -1.071154         3.599385         0.263754
