19
Iteration:  1697
 O        -3.410392         4.696417         0.848118
 C        -3.166249         3.297905         0.880984
 C        -2.304505         2.993022         2.095589
 C        -2.354884         1.372887         2.285459
 C        -1.748802         1.282838         0.864645
 C        -0.332278         0.884191         0.957456
 C         0.358897         0.361493        -0.254482
 O         0.033123         0.564713        -1.395471
 C        -1.736267         2.803907         0.644253
 H        -3.412513         5.041830        -0.078904
 H        -4.063062         2.706829         0.480068
 H        -2.277761         3.745123         2.871093
 H        -1.767699         1.097941         3.259187
 H        -3.430071         1.104726         2.357147
 H        -2.428569         0.615073         0.154512
 H         0.222930         1.792093         1.370845
 H         0.030370         0.089801         1.753548
 H         1.336258        -0.189942        -0.007143
 H        -1.093749         3.472769         0.079652
