19
Iteration:  2558charge 0 multiplicity 1
 O        -3.609212         4.262804         0.349939
 C        -3.311708         3.004577         0.966984
 C        -2.379597         3.170268         2.154653
 C        -1.895568         1.679478         2.617545
 C        -1.633865         1.270988         1.183069
 C        -0.129357         0.704383         0.947518
 C         0.281727         0.465807        -0.446448
 O        -0.073833         1.147334        -1.385157
 C        -1.894437         2.653691         0.657707
 H        -3.718404         4.218560        -0.613954
 H        -4.005956         2.260716         0.915883
 H        -2.132465         4.040791         2.683766
 H        -1.129396         1.878249         3.283907
 H        -2.587269         1.022623         3.241528
 H        -2.259141         0.469241         1.003294
 H         0.540383         1.478579         1.470575
 H        -0.125925        -0.279625         1.398692
 H         0.871529        -0.523240        -0.529677
 H        -1.311954         3.105734        -0.104487
