19
Iteration:  1366charge 0 multiplicity 1
 O        -3.540937         4.762479         1.715924
 C        -3.283778         3.515675         1.071022
 C        -2.737886         2.428171         1.954092
 C        -2.294672         1.283050         1.061398
 C        -1.397421         2.098431         0.116095
 C         0.037713         1.583407         0.296119
 C         0.299140         0.070927         0.276028
 O         0.026419        -0.702797        -0.677571
 C        -1.788565         3.355876         0.867921
 H        -3.242322         5.554172         1.278154
 H        -3.931789         3.331234         0.181636
 H        -3.061225         2.538186         3.051963
 H        -1.819658         0.546466         1.811106
 H        -3.128792         0.784441         0.675277
 H        -1.528518         1.893573        -0.913410
 H         0.630967         1.949688        -0.475572
 H         0.399205         2.125281         1.114914
 H         0.832161        -0.466145         1.079623
 H        -1.268760         4.331228         1.086903
