19
Iteration:  2598
 O        -3.529940         4.383033         0.462228
 C        -3.217132         3.016310         0.835923
 C        -2.336436         3.035551         2.019383
 C        -2.076849         1.667657         2.630744
 C        -1.520954         1.138307         1.282507
 C        -0.087895         0.897147         0.998868
 C         0.356579         0.669091        -0.432359
 O        -0.350466         1.019225        -1.350082
 C        -1.875355         2.474225         0.617308
 H        -3.471183         4.361217        -0.513080
 H        -4.117323         2.260511         0.578135
 H        -2.117421         3.989233         2.420120
 H        -1.230686         1.650835         3.505867
 H        -2.830723         1.030274         2.968195
 H        -2.189829         0.259771         0.781428
 H         0.485875         1.749979         1.328389
 H         0.327598         0.088597         1.645241
 H         1.265771         0.041954        -0.622578
 H        -1.287877         2.970934        -0.148302
