19
Iteration:  3070charge 0 multiplicity 1
 O        -3.185128         4.688838         0.657553
 C        -3.147635         3.306580         0.971223
 C        -2.266688         3.046437         2.121606
 C        -2.359309         1.494412         2.501126
 C        -1.887715         1.135189         1.054520
 C        -0.556259         0.448128         0.888236
 C        -0.190682         0.514640        -0.647837
 O         0.774678         1.062479        -1.162165
 C        -1.967891         2.565111         0.602842
 H        -3.219240         4.649515        -0.326470
 H        -4.109927         2.829570         1.085230
 H        -1.838069         3.859109         2.705667
 H        -1.679524         1.262321         3.379445
 H        -3.366604         1.087189         2.720105
 H        -2.618441         0.495689         0.497787
 H         0.365009         0.888751         1.433336
 H        -0.507127        -0.712207         1.078044
 H        -1.097784         0.107619        -1.219286
 H        -1.145369         3.015957        -0.004538
