19
Iteration:  2566charge 0 multiplicity 1
 O        -3.553587         4.320863         0.353909
 C        -3.310468         2.976785         0.952881
 C        -2.359359         3.099973         2.105147
 C        -1.948720         1.699046         2.660077
 C        -1.551297         1.209225         1.160310
 C        -0.179860         0.805702         0.994179
 C         0.287208         0.513159        -0.433898
 O        -0.132887         1.127942        -1.400642
 C        -1.889823         2.587184         0.711234
 H        -3.631138         4.064762        -0.563951
 H        -4.168293         2.213260         0.737841
 H        -2.339303         3.999418         2.670152
 H        -0.880954         1.962378         3.152531
 H        -2.582113         1.097010         3.226547
 H        -2.349511         0.489672         0.737882
 H         0.620044         1.431748         1.392610
 H         0.019708        -0.143458         1.503894
 H         0.843386        -0.416045        -0.564465
 H        -1.460953         3.051677        -0.181780
