19
Iteration:   977charge 0 multiplicity 1
 O        -3.385912         4.848847         1.906330
 C        -3.173660         3.782179         1.047237
 C        -3.062085         2.322241         1.630969
 C        -2.540751         1.268524         0.635553
 C        -1.377613         2.163311         0.094972
 C        -0.018657         1.496387         0.451541
 C         0.114428         0.209410        -0.384886
 O         0.454077        -0.854739         0.076561
 C        -1.795989         3.202090         1.112222
 H        -2.894467         5.576510         1.528582
 H        -3.820579         3.794671         0.113978
 H        -3.162607         2.102912         2.638218
 H        -2.235297         0.413005         1.268231
 H        -3.262988         0.926975        -0.078559
 H        -1.371717         2.297269        -1.029851
 H         0.940009         1.907545         0.171108
 H         0.082390         1.189729         1.526691
 H        -0.332072         0.347698        -1.471959
 H        -1.102048         3.778541         1.803432
