19
Iteration:  3365charge 0 multiplicity 1
 O        -3.383151         4.872522         1.148700
 C        -3.044238         3.551916         0.946284
 C        -2.794573         2.693499         2.176001
 C        -2.530485         1.360017         1.909785
 C        -1.572738         1.690456         0.694798
 C        -0.169482         0.926395         0.744689
 C         0.456042         0.333826        -0.472627
 O        -0.106939        -0.177222        -1.397223
 C        -1.612228         3.131473         1.126734
 H        -2.782782         5.377323         0.533434
 H        -3.529033         3.022567         0.021004
 H        -2.781593         3.056153         3.208854
 H        -1.842004         1.084871         2.705978
 H        -3.321818         0.427098         1.825175
 H        -1.988195         1.445394        -0.384900
 H         0.453228         1.601696         1.335804
 H        -0.189942         0.113061         1.483511
 H         1.559957         0.277809        -0.329732
 H        -0.866099         3.813851         1.247095
