19
Iteration:   640charge 0 multiplicity 1
 O        -3.392238         5.125031         1.359769
 C        -2.792652         3.831166         0.927247
 C        -3.275272         2.545032         1.601869
 C        -2.883169         1.376460         0.752058
 C        -1.343798         1.903897         0.537789
 C        -0.457438         0.764110         0.967575
 C        -0.007024        -0.262567        -0.173478
 O         1.021437         0.000509        -0.785040
 C        -1.705408         3.008893         1.578395
 H        -2.620264         5.754449         1.478811
 H        -2.724911         3.758032        -0.109978
 H        -3.863263         2.543632         2.517545
 H        -2.655291         0.523290         1.371257
 H        -3.495160         1.092518        -0.203537
 H        -1.122936         2.391137        -0.482612
 H         0.428531         1.240568         1.340870
 H        -0.902038         0.208429         1.825887
 H        -0.688968        -1.070682        -0.454571
 H        -1.146596         3.152481         2.426889
