19
Iteration:  3126charge 0 multiplicity 1
 O        -3.192167         4.611822         0.552765
 C        -3.045660         3.261097         0.850092
 C        -2.185428         2.970429         2.066193
 C        -2.183041         1.537431         2.506304
 C        -1.928584         1.122348         1.045219
 C        -0.746074         0.272839         0.823319
 C        -0.121393         0.418510        -0.570155
 O         0.379982         1.434820        -0.978830
 C        -1.743797         2.638433         0.696357
 H        -2.842376         4.608718        -0.392043
 H        -3.940123         2.702396         0.695737
 H        -2.003795         3.786844         2.860130
 H        -1.378290         1.279979         3.257443
 H        -3.093849         1.227821         2.986112
 H        -2.834086         0.723209         0.590900
 H         0.187019         0.270320         1.469937
 H        -0.960842        -0.875163         0.753107
 H        -0.113171        -0.500322        -1.246454
 H        -0.891684         3.020546         0.014032
