19
Iteration:  3163charge 0 multiplicity 1
 O        -3.216873         4.672656         0.561977
 C        -3.045752         3.331544         0.926419
 C        -2.109846         3.009635         2.111651
 C        -2.303535         1.587504         2.373748
 C        -1.858315         1.071412         1.037755
 C        -0.636182         0.125636         0.755039
 C         0.007889         0.341069        -0.503658
 O         0.160745         1.462898        -0.984674
 C        -1.648038         2.640536         0.677965
 H        -3.522743         4.707550        -0.360551
 H        -3.921409         2.688471         0.828059
 H        -2.022162         3.763172         2.818609
 H        -1.469946         1.413813         3.267272
 H        -3.317148         1.198986         2.680243
 H        -2.735820         0.522148         0.517795
 H         0.016257         0.181307         1.549119
 H        -1.088095        -0.761111         0.836786
 H         0.600549        -0.573784        -0.896022
 H        -0.830628         3.047925         0.151831
