19
Iteration:  2224
 O        -3.684394         4.433976         0.668883
 C        -3.180820         3.158574         0.836760
 C        -2.472330         3.008389         2.101300
 C        -2.123942         1.527198         2.524120
 C        -1.546199         1.359575         1.059737
 C        -0.108611         0.892887         0.958787
 C         0.303549         0.987100        -0.503979
 O        -0.062952         0.186296        -1.350003
 C        -1.729424         2.821928         0.687938
 H        -3.889530         4.361594        -0.308477
 H        -3.897178         2.440002         0.413551
 H        -2.379384         3.795553         2.886953
 H        -1.150706         1.354229         3.227360
 H        -2.974714         0.950136         2.865945
 H        -2.164858         0.605225         0.486086
 H         0.447442         1.644214         1.527197
 H        -0.058264        -0.052387         1.365205
 H         0.888338         1.929353        -0.809391
 H        -0.910596         3.571714         0.435818
