19
Iteration:  4662charge 0 multiplicity 1
 O        -3.033872         4.856733         2.174535
 C        -2.218657         4.087251         1.260347
 C        -3.160645         3.149792         0.516467
 C        -2.493793         2.145042        -0.460915
 C        -1.355169         1.911962         0.599983
 C        -1.171395         0.329468         0.899408
 C        -0.099643        -0.587540         0.273453
 O         0.813749        -0.145321        -0.409131
 C        -2.111477         2.645257         1.587887
 H        -2.506294         5.072034         2.987667
 H        -1.332942         4.703624         0.792402
 H        -4.233899         3.358285         0.681880
 H        -3.199144         1.220575        -0.629447
 H        -2.195325         2.621160        -1.444136
 H        -0.414778         2.270395         0.355623
 H        -0.863732         0.223155         1.927120
 H        -2.177980        -0.176798         0.897728
 H        -0.069013        -1.613456         0.754317
 H        -2.449575         2.360753         2.538184
