19
Iteration:  1230charge 0 multiplicity 1
 O        -3.684860         4.671901         1.539922
 C        -3.114379         3.558652         0.887390
 C        -2.741702         2.509516         1.880926
 C        -2.451881         1.240776         1.099847
 C        -1.272404         1.957315         0.346804
 C         0.026260         1.400349         0.610255
 C         0.440026         0.391508        -0.376913
 O        -0.206373        -0.643779        -0.432237
 C        -1.601058         3.305025         1.166560
 H        -3.252543         5.528015         1.307783
 H        -3.503156         3.310401        -0.071199
 H        -3.194913         2.821986         2.873562
 H        -2.063023         0.478410         1.745022
 H        -3.418106         0.785707         0.610372
 H        -1.542001         1.855748        -0.740616
 H         0.634159         2.222167         0.384737
 H         0.432788         1.143419         1.631172
 H         1.313568         0.536954        -1.076739
 H        -0.911954         4.077353         1.457317
