19
Iteration:  1354charge 0 multiplicity 1
 O        -3.527084         4.738033         1.765411
 C        -3.293032         3.595737         1.009953
 C        -2.782636         2.552082         1.901007
 C        -2.403746         1.248737         1.073625
 C        -1.423947         2.041454         0.128200
 C         0.046346         1.576670         0.272120
 C         0.381255         0.034309         0.243996
 O         0.058088        -0.695646        -0.642997
 C        -1.830515         3.301098         0.929508
 H        -3.046238         5.440045         1.269971
 H        -4.020234         3.385781         0.221737
 H        -2.559012         2.543599         2.992297
 H        -1.687907         0.553795         1.617632
 H        -3.123568         0.648685         0.547550
 H        -1.783308         2.247215        -0.823307
 H         0.596601         1.959928        -0.514183
 H         0.491836         1.835247         1.217635
 H         1.109944        -0.147741         1.042799
 H        -1.141546         4.222719         0.988244
