19
Iteration:  3670
 O        -3.553448         4.733361         2.080945
 C        -3.069757         3.768957         1.110280
 C        -2.771449         2.445464         1.665290
 C        -2.626176         1.477855         0.494251
 C        -1.268045         2.219183         0.062964
 C         0.117790         1.430197         0.367917
 C         0.034334         0.078402        -0.395113
 O         0.086334        -1.019619         0.055378
 C        -1.591677         3.301582         1.151335
 H        -3.307902         5.625147         1.749647
 H        -3.639509         3.783798         0.189282
 H        -3.209601         2.213536         2.603523
 H        -2.390043         0.519125         0.830505
 H        -3.377995         1.379606        -0.323186
 H        -1.235542         2.600260        -0.889690
 H         0.965003         1.942520        -0.084338
 H         0.233487         1.297781         1.377203
 H        -0.041264         0.260959        -1.560391
 H        -0.754492         3.855801         1.699086
