19
Iteration:  1475
 O        -3.739840         4.791160         1.359846
 C        -3.251712         3.526881         0.920369
 C        -2.687517         2.641855         2.021644
 C        -2.281420         1.234480         1.542343
 C        -1.317061         1.907528         0.459661
 C         0.166722         1.392339         0.531544
 C         0.427510         0.002760        -0.058966
 O        -0.189941        -0.458717        -0.989514
 C        -1.761200         3.318338         1.033952
 H        -3.443914         5.544870         0.790074
 H        -3.783943         3.089435         0.107081
 H        -2.867540         2.891747         3.086867
 H        -1.617027         0.655290         2.284938
 H        -3.174791         0.725765         1.214958
 H        -1.597205         1.756290        -0.585497
 H         0.667788         2.035882        -0.174121
 H         0.528188         1.560335         1.567675
 H         1.370289        -0.423169         0.262058
 H        -1.099787         4.132193         1.313645
