19
Iteration:  1024charge 0 multiplicity 1
 O        -3.568569         4.706376         1.857651
 C        -3.075371         3.680030         1.009597
 C        -2.849490         2.454004         1.771479
 C        -2.682253         1.337938         0.782230
 C        -1.467129         1.992880         0.089258
 C        -0.059842         1.536184         0.448638
 C         0.413426         0.300212        -0.333760
 O         0.180914        -0.884967        -0.041600
 C        -1.589755         3.259676         0.998979
 H        -3.185055         5.540517         1.518396
 H        -3.515225         3.831675        -0.037737
 H        -3.067886         2.503888         2.894855
 H        -2.470052         0.436402         1.198802
 H        -3.512714         1.250395         0.108719
 H        -1.510957         2.359931        -0.926048
 H         0.631497         2.379834         0.421588
 H        -0.016967         1.036351         1.446196
 H         1.155095         0.523582        -1.225082
 H        -0.913024         3.822013         1.587746
