19
Iteration:   759charge 0 multiplicity 1
 O        -3.334959         5.101756         1.725406
 C        -2.946094         3.898505         0.944154
 C        -3.144204         2.559559         1.664539
 C        -3.045964         1.377582         0.668993
 C        -1.645848         1.853353         0.336422
 C        -0.346673         1.000965         0.671403
 C         0.124468        -0.125159        -0.236881
 O         1.274350        -0.481836        -0.485565
 C        -1.718365         3.138055         1.420536
 H        -3.441806         5.769058         1.044463
 H        -2.979162         3.985541        -0.194952
 H        -3.771969         2.678101         2.622415
 H        -3.198428         0.417331         1.152177
 H        -3.886526         1.496989        -0.059196
 H        -1.680932         2.158978        -0.701811
 H         0.584002         1.547880         0.955504
 H        -0.563615         0.391092         1.575815
 H        -0.724445        -0.540648        -0.811949
 H        -0.978406         3.329960         2.177390
