19
Iteration:  2988
 O        -3.539085         4.787517         0.964634
 C        -3.350516         3.362948         1.155841
 C        -2.345394         3.056345         2.187470
 C        -2.230545         1.554981         2.349518
 C        -1.967342         1.394183         0.837975
 C        -0.504219         0.717083         0.663491
 C         0.021198         0.312870        -0.727042
 O         1.172985         0.317405        -1.133235
 C        -2.075233         2.849305         0.656212
 H        -3.406507         4.961997         0.041863
 H        -4.272030         2.748710         0.881567
 H        -1.923074         3.903593         2.858637
 H        -1.378640         1.291354         2.928839
 H        -3.141528         1.102163         2.742479
 H        -2.546325         0.691565         0.270639
 H         0.346781         1.222624         1.149010
 H        -0.556837        -0.464570         1.067215
 H        -0.805408         0.111760        -1.495290
 H        -1.333405         3.390048        -0.041171
