19
Iteration:  1518charge 0 multiplicity 1
 O        -3.537045         4.757386         1.182664
 C        -3.127175         3.460992         0.799367
 C        -2.628260         2.640779         2.104955
 C        -2.441416         1.155843         1.745159
 C        -1.522967         1.744935         0.551160
 C         0.026230         1.413288         0.709290
 C         0.511500         0.364748        -0.325916
 O        -0.255465        -0.363776        -0.927654
 C        -1.682511         3.176333         1.063887
 H        -3.476397         5.226725         0.323816
 H        -3.654399         3.153189        -0.042959
 H        -2.983930         3.180346         2.982776
 H        -1.836397         0.647265         2.490249
 H        -3.202886         0.547056         1.337893
 H        -1.790077         1.617860        -0.424610
 H         0.677373         2.167432         0.348065
 H         0.300488         1.010574         1.732055
 H         1.612215         0.357538        -0.694510
 H        -0.937232         3.891244         1.293741
