19
Iteration:  1505charge 0 multiplicity 1
 O        -3.590416         4.724978         1.247699
 C        -3.095094         3.486854         0.824144
 C        -2.701263         2.646397         2.044958
 C        -2.459565         1.203423         1.702436
 C        -1.379822         1.787271         0.550495
 C         0.049256         1.402762         0.571139
 C         0.493612         0.278735        -0.246552
 O        -0.252325        -0.394535        -0.947265
 C        -1.692697         3.214930         1.051115
 H        -3.582513         5.455298         0.619026
 H        -3.546001         2.915480         0.022916
 H        -2.912947         2.974577         3.106542
 H        -1.876479         0.635193         2.343284
 H        -3.444628         0.697876         1.683797
 H        -1.795407         1.515339        -0.436669
 H         0.545335         2.381309         0.409104
 H         0.423397         1.336152         1.654054
 H         1.658712         0.145104        -0.134859
 H        -0.905087         3.989440         1.147693
