19
Iteration:  2350charge 0 multiplicity 1
 O        -3.590862         4.337434         0.524765
 C        -3.240461         3.014442         0.885794
 C        -2.318130         3.084713         2.026677
 C        -2.071471         1.645243         2.469773
 C        -1.508144         1.225943         1.157032
 C        -0.017259         0.883639         1.078072
 C         0.352212         0.532537        -0.369263
 O        -0.271618         1.053062        -1.268644
 C        -1.949619         2.549039         0.510465
 H        -3.875901         4.458145        -0.425591
 H        -4.230947         2.331669         0.854894
 H        -1.887541         4.105381         2.420329
 H        -1.466458         1.530460         3.283081
 H        -2.919220         0.999175         2.794111
 H        -1.872952         0.197761         0.643747
 H         0.579672         1.675337         1.479200
 H         0.437290         0.031796         1.678071
 H         1.103067        -0.291098        -0.525204
 H        -1.378968         3.107283        -0.234959
