19
Iteration:  1775charge 0 multiplicity 1
 O        -3.234342         4.505317         0.412966
 C        -3.131867         3.145617         0.818704
 C        -2.216703         3.002249         2.096768
 C        -2.197252         1.592227         2.572541
 C        -1.838995         1.150569         1.091146
 C        -0.579181         0.375023         0.943870
 C         0.269627         0.651368        -0.304045
 O        -0.104647         1.226258        -1.294279
 C        -1.673894         2.613939         0.734469
 H        -2.980818         4.550441        -0.549499
 H        -4.108956         2.640595         0.583776
 H        -2.080949         3.872211         2.729025
 H        -1.365139         1.181859         3.198876
 H        -3.234462         1.243896         2.885964
 H        -2.702650         0.719294         0.385434
 H         0.057399         0.638925         1.823769
 H        -0.474292        -0.752566         0.954750
 H         1.386199         0.431879        -0.231956
 H        -0.984772         3.026135         0.046587
