19
Iteration:  3019charge 0 multiplicity 1
 O        -3.375714         4.774957         0.856197
 C        -3.266658         3.345121         1.067755
 C        -2.255958         2.980828         2.139191
 C        -2.327720         1.464796         2.406201
 C        -1.928239         1.249908         0.890314
 C        -0.444978         0.706187         0.754019
 C        -0.166642         0.472260        -0.677464
 O         0.983762         0.579936        -1.075867
 C        -2.005580         2.724548         0.596896
 H        -3.675083         4.710957        -0.106410
 H        -4.192057         2.775004         0.828479
 H        -1.739625         3.721517         2.863620
 H        -1.361198         1.177192         3.020190
 H        -3.315090         1.203544         2.754440
 H        -2.605516         0.506267         0.351591
 H         0.379156         1.270572         1.055700
 H        -0.405304        -0.283367         1.294563
 H        -1.079006         0.296046        -1.301554
 H        -1.283472         3.236894        -0.183057
