19
Iteration:  3100
 O        -3.164697         4.663970         0.530458
 C        -3.127718         3.293843         0.908788
 C        -2.242115         3.028385         2.160051
 C        -2.233773         1.498910         2.554435
 C        -1.950089         1.098760         0.963373
 C        -0.603692         0.329421         0.810308
 C        -0.177970         0.400553        -0.657346
 O         0.567345         1.299474        -0.995637
 C        -1.883323         2.610250         0.710764
 H        -2.775643         4.573251        -0.385680
 H        -4.149279         2.791761         0.883484
 H        -1.946138         3.841503         2.753205
 H        -1.377713         1.334138         3.030198
 H        -2.961678         1.051646         3.264689
 H        -2.771048         0.663001         0.424215
 H         0.298619         0.773750         1.350339
 H        -0.613139        -0.778011         1.150774
 H        -0.762699        -0.145103        -1.444407
 H        -1.068360         2.993904         0.189207
