19
Iteration:  2719charge 0 multiplicity 1
 O        -3.762949         4.514523         0.729908
 C        -3.334632         3.184338         0.963414
 C        -2.480413         3.126544         2.177778
 C        -2.029224         1.626189         2.476355
 C        -1.591628         1.405607         1.012033
 C        -0.163744         0.852674         0.832173
 C         0.481669         0.741022        -0.502088
 O         0.153337         0.073590        -1.459546
 C        -1.914280         2.882823         0.763292
 H        -3.726981         4.805621        -0.228334
 H        -4.101196         2.339649         0.758664
 H        -2.722641         3.980662         2.767022
 H        -1.056937         1.579264         3.192554
 H        -2.691348         0.917796         2.956460
 H        -2.361077         0.705489         0.605991
 H         0.532762         1.347573         1.429757
 H        -0.142899        -0.279702         1.107829
 H         1.359801         1.395302        -0.588272
 H        -1.286194         3.561260         0.164070
