19
Iteration:     4
 O        -3.422930         4.845376         1.841009
 C        -2.744158         3.963127         1.032745
 C        -3.180906         2.585843         0.869366
 C        -2.377833         1.847987        -0.181751
 C        -1.061837         2.177687         0.635196
 C        -0.311272         0.903463         1.110115
 C         0.303418         0.165194         0.009385
 O        -0.001831        -0.914331        -0.414243
 C        -1.881343         2.901519         1.668136
 H        -3.866822         4.324417         2.538938
 H        -2.299979         4.457960         0.134708
 H        -4.088465         2.248897         1.336738
 H        -2.508183         0.715566        -0.160247
 H        -2.318568         2.382126        -1.168724
 H        -0.328437         2.808201         0.147040
 H         0.446783         1.317358         1.827139
 H        -0.952812         0.231248         1.739992
 H         1.191363         0.738577        -0.502428
 H        -1.764233         2.911836         2.783908
