19
Iteration:  3675charge 0 multiplicity 1
 O        -3.557186         4.728512         2.077529
 C        -3.084648         3.788578         1.107026
 C        -2.783330         2.476198         1.664093
 C        -2.575900         1.531025         0.502126
 C        -1.272594         2.190968         0.045461
 C         0.074228         1.422321         0.336884
 C        -0.008873         0.084311        -0.395406
 O         0.135243        -1.033372         0.055610
 C        -1.582053         3.295512         1.199827
 H        -3.295155         5.584784         1.742859
 H        -3.684017         3.707152         0.156243
 H        -3.294506         2.214210         2.630201
 H        -2.212336         0.434240         0.715123
 H        -3.314083         1.499504        -0.319859
 H        -1.335910         2.562954        -1.089724
 H         0.994766         1.877283        -0.111510
 H         0.291804         1.210971         1.496059
 H        -0.072456         0.128581        -1.448894
 H        -0.859565         3.752490         1.834902
