19
Iteration:  1014
 O        -3.484294         4.691326         1.860534
 C        -3.076162         3.723084         1.002138
 C        -2.913200         2.450196         1.733583
 C        -2.678161         1.344991         0.775062
 C        -1.394427         2.061045         0.119353
 C        -0.033727         1.432739         0.448839
 C         0.342985         0.294067        -0.357003
 O         0.241332        -0.840799        -0.007950
 C        -1.744487         3.265770         1.019274
 H        -3.083743         5.553050         1.742498
 H        -3.538979         3.668383        -0.076119
 H        -2.969470         2.253024         2.871871
 H        -2.551490         0.394006         1.189861
 H        -3.444353         1.205819         0.009698
 H        -1.601044         2.071924        -0.934606
 H         0.710875         2.253582         0.174729
 H        -0.040291         1.397375         1.561912
 H         0.962952         0.557931        -1.297410
 H        -0.920997         3.736598         1.465071
