19
Iteration:  1656charge 0 multiplicity 1
 O        -3.511459         4.812038         0.928877
 C        -3.331962         3.428737         0.984716
 C        -2.531383         2.954233         2.166949
 C        -2.371858         1.432259         2.097519
 C        -1.562229         1.350473         0.787236
 C        -0.109777         0.902642         0.869353
 C         0.515948         0.288294        -0.271679
 O         0.013500         0.169484        -1.375136
 C        -1.796675         3.031840         0.776312
 H        -3.280702         5.042536         0.033055
 H        -4.180578         2.771355         0.836265
 H        -2.451896         3.581929         3.027174
 H        -1.738462         0.893736         2.740612
 H        -3.302844         0.854584         1.822964
 H        -1.961687         0.848957        -0.037011
 H         0.582481         1.582175         1.400914
 H        -0.112462         0.154252         1.644832
 H         1.551459        -0.177131        -0.278156
 H        -1.219179         3.688257         0.201282
