19
Iteration:  2685
 O        -3.714317         4.462652         0.634584
 C        -3.265332         3.135988         0.891762
 C        -2.349986         3.127919         2.128626
 C        -2.124579         1.645082         2.573082
 C        -1.594215         1.298495         1.166595
 C        -0.090563         0.838897         0.942376
 C         0.407905         0.826197        -0.485791
 O        -0.040742         0.306250        -1.501228
 C        -1.828574         2.759922         0.695504
 H        -3.769020         4.594548        -0.353202
 H        -4.033874         2.297068         0.799415
 H        -2.516573         3.958167         2.680139
 H        -1.253840         1.575163         3.350017
 H        -2.996454         0.980674         2.702183
 H        -2.222903         0.571967         0.587422
 H         0.545584         1.350534         1.604800
 H         0.004087        -0.263067         1.318769
 H         1.383584         1.327965        -0.590628
 H        -1.255746         3.314855        -0.012916
