19
Iteration:   970
 O        -3.402643         4.829553         1.898170
 C        -3.128157         3.764345         1.001591
 C        -3.044319         2.363331         1.617476
 C        -2.531902         1.284156         0.613818
 C        -1.384099         2.160155         0.100226
 C        -0.081466         1.433099         0.433249
 C         0.044005         0.212507        -0.329678
 O         0.503159        -0.831721         0.069433
 C        -1.761985         3.187209         1.172282
 H        -2.970379         5.629294         1.602758
 H        -3.996809         3.822950         0.269918
 H        -3.222438         2.206865         2.715661
 H        -2.167889         0.416738         1.079895
 H        -3.248323         0.908217        -0.145735
 H        -1.392248         2.626743        -0.865462
 H         0.845125         1.904675        -0.125814
 H         0.320352         1.213823         1.459192
 H        -0.316242         0.243068        -1.324746
 H        -1.123721         3.772157         1.792391
