19
Iteration:  1669charge 0 multiplicity 1
 O        -3.505777         4.792068         0.894307
 C        -3.273203         3.384786         1.022502
 C        -2.444431         2.949812         2.122573
 C        -2.370445         1.386238         2.152605
 C        -1.616327         1.390467         0.747646
 C        -0.171845         0.919070         0.949301
 C         0.500256         0.272799        -0.266898
 O         0.000864         0.315260        -1.397371
 C        -1.794560         2.876613         0.684324
 H        -3.173677         5.077134         0.003086
 H        -4.066195         2.855368         0.579987
 H        -2.224920         3.556797         2.989289
 H        -1.909055         1.211794         3.058103
 H        -3.339356         0.864106         2.263680
 H        -2.125832         0.852438         0.016699
 H         0.399998         1.766755         1.285421
 H        -0.061716         0.142616         1.637612
 H         1.430161        -0.244328         0.092874
 H        -1.140004         3.647794         0.347267
