19
Iteration:  1795charge 0 multiplicity 1
 O        -3.263525         4.438995         0.359721
 C        -2.975043         3.180904         0.802520
 C        -2.208953         3.010551         2.087930
 C        -2.267992         1.611908         2.617180
 C        -1.817029         1.100467         1.164086
 C        -0.621495         0.313835         0.999387
 C         0.217131         0.703541        -0.337092
 O        -0.145327         1.401712        -1.261962
 C        -1.666034         2.548653         0.665275
 H        -2.727119         4.445675        -0.453193
 H        -3.848645         2.511029         0.489416
 H        -1.889338         3.966330         2.397448
 H        -1.269316         1.399832         3.210098
 H        -3.101033         0.978446         2.880616
 H        -2.677771         0.564796         0.588364
 H         0.130709         0.429834         1.727678
 H        -0.697017        -0.777438         0.994853
 H         1.237117         0.092077        -0.350141
 H        -0.880825         2.938259         0.127660
