19
Iteration:  4789
 O        -3.228825         4.881847         1.844948
 C        -2.200872         4.047372         1.357245
 C        -2.851888         2.918662         0.436863
 C        -1.846551         2.187107        -0.352400
 C        -1.208734         1.702760         0.986250
 C        -1.225962         0.152413         1.116959
 C         0.001410        -0.281208         0.306603
 O         0.056287         0.034935        -0.839567
 C        -2.233015         2.660846         1.771151
 H        -2.852404         5.246302         2.632179
 H        -1.356160         4.618582         1.203781
 H        -3.874591         3.079338         0.034545
 H        -2.287687         1.358260        -0.887777
 H        -1.179594         2.630418        -1.069979
 H        -0.119146         1.943068         1.172617
 H        -1.042362        -0.104560         2.205352
 H        -2.194120        -0.237049         0.832774
 H         0.890606        -0.597159         0.887006
 H        -2.763521         2.337360         2.641836
