19
Iteration:  1590
 O        -3.616886         4.758669         1.065228
 C        -3.116156         3.504450         0.856090
 C        -2.684721         2.778369         2.091187
 C        -2.444876         1.253797         1.973470
 C        -1.528258         1.653531         0.707370
 C        -0.042705         1.110201         0.823769
 C         0.477261         0.470378        -0.439147
 O        -0.068960        -0.307234        -1.183304
 C        -1.637565         3.169990         0.977328
 H        -3.232146         5.290908         0.309338
 H        -3.623894         2.669627         0.248508
 H        -2.804552         3.362347         3.040650
 H        -1.793540         1.102884         2.836745
 H        -3.486213         0.729964         2.024546
 H        -1.960787         1.085466        -0.173540
 H         0.614546         2.023606         1.017220
 H        -0.083573         0.316950         1.507374
 H         1.565302         0.587117        -0.750587
 H        -0.839910         3.905543         1.131140
