19
Iteration:  2973charge 0 multiplicity 1
 O        -3.666058         4.810713         1.033098
 C        -3.390804         3.449815         1.106089
 C        -2.350183         3.070561         2.166318
 C        -2.267450         1.536142         2.439309
 C        -1.836834         1.323598         0.812584
 C        -0.479910         0.684671         0.567212
 C         0.035916         0.310878        -0.828440
 O         1.223453         0.197277        -1.076027
 C        -1.998038         2.962405         0.638082
 H        -3.571896         5.097441         0.102447
 H        -4.277980         2.848167         1.098929
 H        -2.062503         3.731058         2.890397
 H        -1.252272         1.322527         3.065694
 H        -3.145117         1.012920         2.852019
 H        -2.740395         0.942240         0.289251
 H         0.248889         1.220627         1.131978
 H        -0.604087        -0.254500         1.135148
 H        -0.771966        -0.169637        -1.457844
 H        -1.588398         3.670340        -0.049991
