19
Iteration:   800
 O        -3.385376         4.963522         1.828536
 C        -3.129545         3.858418         0.973866
 C        -2.996103         2.522946         1.688090
 C        -2.937409         1.460373         0.657844
 C        -1.494826         1.984708         0.253260
 C        -0.312994         0.980481         0.588959
 C         0.034765        -0.127922        -0.226422
 O         1.163519        -0.557225        -0.317956
 C        -1.751787         3.257299         1.182587
 H        -2.757077         5.631900         1.516178
 H        -3.535488         3.981976        -0.083764
 H        -3.466788         2.504533         2.676129
 H        -2.970429         0.379303         0.936420
 H        -3.460585         1.616191        -0.220675
 H        -1.410333         2.290270        -0.774494
 H         0.558267         1.625939         0.916289
 H        -0.649467         0.587197         1.617818
 H        -0.803626        -0.656185        -0.778658
 H        -1.192295         3.882355         1.839407
