19
Iteration:  3747charge 0 multiplicity 1
 O        -3.292096         4.861452         2.026692
 C        -2.966494         3.886102         1.072177
 C        -3.065337         2.448203         1.566226
 C        -2.836848         1.414221         0.424662
 C        -1.390384         2.098818         0.123360
 C        -0.058142         1.342622         0.420231
 C        -0.139300        -0.025111        -0.205062
 O         0.670954        -0.866368        -0.166139
 C        -1.692549         3.202031         1.320232
 H        -2.745794         5.618486         1.951145
 H        -3.317729         4.119380         0.086349
 H        -3.784389         2.366497         2.412885
 H        -2.720021         0.470410         0.800677
 H        -3.629083         1.471568        -0.332969
 H        -1.285861         2.600216        -0.870997
 H         0.694442         1.973985        -0.092424
 H         0.159401         1.400863         1.425581
 H        -1.069356        -0.254065        -0.663274
 H        -0.880750         3.472618         2.095467
