19
Iteration:  2552
 O        -3.662147         4.230403         0.367925
 C        -3.286391         3.069308         0.949304
 C        -2.379082         3.138250         2.146143
 C        -1.897436         1.718609         2.615414
 C        -1.618471         1.285014         1.208947
 C        -0.137830         0.653794         0.953170
 C         0.263124         0.424927        -0.459247
 O        -0.027235         1.158955        -1.387911
 C        -1.905443         2.693414         0.650714
 H        -3.736949         4.154984        -0.631046
 H        -4.140330         2.217153         1.089441
 H        -2.027267         4.151427         2.614432
 H        -0.978207         1.740962         3.368695
 H        -2.656382         1.094500         3.121804
 H        -2.351950         0.396839         0.860760
 H         0.514378         1.319787         1.476098
 H        -0.085581        -0.311391         1.540358
 H         0.936913        -0.421840        -0.674200
 H        -1.247847         3.252437        -0.060999
