19
Iteration:  4842charge 0 multiplicity 1
 O        -3.345048         4.913062         1.891183
 C        -2.429255         3.942147         1.330579
 C        -2.748018         2.953004         0.331203
 C        -1.453298         2.420308        -0.306652
 C        -1.128019         1.923634         1.145200
 C        -0.854031         0.413891         1.280815
 C        -0.165339        -0.433273         0.227864
 O        -0.179038        -0.251481        -1.005134
 C        -2.412212         2.493284         1.721835
 H        -2.931424         4.943965         2.742809
 H        -1.539361         4.516871         1.131816
 H        -3.786126         3.054805        -0.022266
 H        -1.617638         1.595587        -0.974767
 H        -0.715843         3.135792        -0.776141
 H        -0.259450         2.373619         1.462741
 H        -0.374113         0.205151         2.269589
 H        -1.756217        -0.142991         1.313207
 H         0.305604        -1.386265         0.561137
 H        -2.997929         2.155666         2.549389
