19
Iteration:  1368
 O        -3.552670         4.768669         1.718035
 C        -3.271421         3.502548         1.071257
 C        -2.715741         2.416997         1.943884
 C        -2.290376         1.280983         1.078595
 C        -1.401527         2.105186         0.119506
 C         0.044477         1.585194         0.304043
 C         0.285614         0.078070         0.271504
 O         0.019805        -0.696625        -0.675438
 C        -1.785278         3.371035         0.870913
 H        -3.251276         5.546409         1.190722
 H        -3.988491         3.268280         0.181833
 H        -3.114425         2.517025         2.980772
 H        -1.799023         0.545423         1.783555
 H        -3.138207         0.810815         0.647741
 H        -1.532737         1.815043        -0.946745
 H         0.714147         1.957200        -0.512071
 H         0.409598         2.126553         1.127798
 H         0.716584        -0.494947         1.066012
 H        -1.215658         4.246739         1.100727
