19
Iteration:  4447
 O        -3.221116         4.984209         2.069568
 C        -2.569049         4.025402         1.178750
 C        -3.250821         2.796692         0.687873
 C        -2.349943         2.322252        -0.412620
 C        -1.150075         2.022371         0.721538
 C        -0.820497         0.536395         0.975486
 C        -0.073867        -0.054345        -0.194207
 O         0.658700        -1.022795        -0.240689
 C        -2.029052         2.741481         1.768742
 H        -2.504823         5.362676         2.639436
 H        -1.939120         4.606232         0.423727
 H        -4.318554         2.765653         0.898095
 H        -2.737818         1.413301        -0.759685
 H        -2.360231         2.971362        -1.346207
 H        -0.237428         2.601164         0.465983
 H        -0.209733         0.410876         1.953548
 H        -1.803392         0.120462         1.243181
 H        -0.134501         0.605997        -1.073790
 H        -2.142598         2.638298         2.826396
