19
Iteration:  1374charge 0 multiplicity 1
 O        -3.588959         4.776064         1.720977
 C        -3.246034         3.486796         1.040814
 C        -2.651732         2.438261         1.898650
 C        -2.297650         1.255392         1.128562
 C        -1.401466         2.081260         0.127043
 C         0.088596         1.608662         0.308706
 C         0.232316         0.074637         0.244902
 O        -0.001235        -0.658456        -0.669129
 C        -1.787492         3.389718         0.887999
 H        -3.322926         5.343290         0.998662
 H        -3.992181         3.160160         0.369883
 H        -3.095619         2.404776         2.905514
 H        -1.680098         0.489157         1.611259
 H        -3.169899         0.776355         0.547863
 H        -1.704188         1.869738        -0.911917
 H         0.770886         1.946998        -0.497221
 H         0.520735         2.010773         1.307214
 H         0.495623        -0.452132         1.270535
 H        -0.955346         4.129189         1.146069
