19
Iteration:  2841charge 0 multiplicity 1
 O        -3.615045         4.703503         1.000870
 C        -3.449595         3.270994         1.023089
 C        -2.607707         2.943579         2.204916
 C        -2.116550         1.496251         2.280046
 C        -1.620064         1.459961         0.820214
 C        -0.176231         1.151856         0.558144
 C         0.178325         0.710723        -0.805356
 O         0.709112        -0.362072        -1.007789
 C        -2.016560         2.992497         0.835335
 H        -3.583842         5.004269         0.063209
 H        -4.367847         2.716695         0.681179
 H        -2.359241         3.709613         2.979565
 H        -1.425285         1.252085         3.178821
 H        -2.810064         0.723310         2.492954
 H        -2.298586         0.926241         0.167429
 H         0.367610         2.016721         0.782167
 H        -0.013601         0.278501         1.336591
 H        -0.093835         1.434443        -1.621013
 H        -1.533323         3.744061         0.244014
