19
Iteration:  1457charge 0 multiplicity 1
 O        -3.789477         4.765406         1.435570
 C        -3.266881         3.510085         0.994385
 C        -2.665008         2.622322         2.028859
 C        -2.240991         1.269119         1.390743
 C        -1.270652         2.022670         0.359164
 C         0.138814         1.440735         0.478895
 C         0.329889        -0.025162         0.029632
 O        -0.159826        -0.528047        -0.964631
 C        -1.713795         3.372817         1.024592
 H        -3.427570         5.395303         0.764876
 H        -3.818899         2.996158         0.129467
 H        -2.746506         2.823262         3.061707
 H        -1.583792         0.774272         2.135024
 H        -2.825096         0.399831         1.059494
 H        -1.738095         1.752819        -0.660171
 H         1.024391         2.021781         0.079475
 H         0.505810         1.453000         1.502955
 H         0.806972        -0.647814         0.884322
 H        -1.096581         4.264274         1.032784
