19
Iteration:  4553charge 0 multiplicity 1
 O        -3.005554         4.922549         2.043741
 C        -2.322704         4.086224         1.172586
 C        -3.237699         3.028075         0.630101
 C        -2.426264         2.135494        -0.376095
 C        -1.319994         1.824890         0.681423
 C        -0.967869         0.351825         1.050246
 C        -0.338821        -0.314590        -0.164354
 O         0.893759        -0.314477        -0.194052
 C        -2.135335         2.660245         1.697156
 H        -2.437784         5.230334         2.788579
 H        -1.667125         4.645887         0.505248
 H        -4.296717         3.058128         0.752913
 H        -3.240801         1.344608        -0.639071
 H        -2.056144         2.671685        -1.291695
 H        -0.393031         2.220127         0.253938
 H        -0.307833         0.267180         1.912078
 H        -1.880153        -0.331027         1.172034
 H        -0.967767        -0.904179        -0.837033
 H        -2.271563         2.393797         2.734482
