19
Iteration:   564charge 0 multiplicity 1
 O        -3.168090         5.026045         1.707111
 C        -2.840212         3.926432         0.864808
 C        -3.293363         2.497105         1.432875
 C        -2.778685         1.172983         0.563626
 C        -1.378607         1.903164         0.320917
 C        -0.415300         0.990066         1.091056
 C         0.033602        -0.138816         0.149845
 O         0.813786        -0.052076        -0.815364
 C        -1.825031         2.942220         1.376417
 H        -2.691751         5.739527         1.274893
 H        -2.877273         4.110329        -0.161227
 H        -3.916734         2.617422         2.273065
 H        -2.657841         0.271667         1.122032
 H        -3.553657         1.039973        -0.280503
 H        -1.155855         2.294757        -0.603061
 H         0.505380         1.548249         1.354649
 H        -0.904360         0.803914         2.129355
 H        -0.427878        -1.185359         0.282952
 H        -0.981517         3.255965         1.956315
