19
Iteration:   276charge 0 multiplicity 1
 O        -3.328883         4.825693         1.832350
 C        -2.847980         3.920050         0.923784
 C        -3.157283         2.473607         1.041323
 C        -2.512152         1.568566         0.031773
 C        -1.021143         2.016902         0.430810
 C        -0.134313         1.079944         1.199429
 C         0.485333         0.108269         0.203074
 O        -0.268667        -0.497037        -0.510120
 C        -1.801872         2.936535         1.477642
 H        -4.280192         4.752830         1.868821
 H        -2.610199         4.375640        -0.027730
 H        -4.066994         2.174775         1.580607
 H        -2.711561         0.447610         0.228778
 H        -2.759904         1.603104        -1.076161
 H        -0.542999         2.507164        -0.381316
 H         0.677641         1.678651         1.587610
 H        -0.622965         0.581963         2.052584
 H         1.615949         0.149123         0.042527
 H        -1.597443         2.808266         2.498789
