19
Iteration:  2905
 O        -3.810874         4.665634         1.130254
 C        -3.317673         3.380813         1.089460
 C        -2.384320         3.025152         2.210250
 C        -2.253379         1.538795         2.190838
 C        -1.704361         1.542203         0.679935
 C        -0.324880         0.940259         0.632464
 C        -0.002543         0.447500        -0.755000
 O         1.007244        -0.189899        -0.983756
 C        -1.908366         3.106160         0.676886
 H        -4.179296         4.931249         0.228612
 H        -3.985721         2.569320         0.959643
 H        -1.905164         3.732881         2.975427
 H        -1.477322         1.250371         2.989511
 H        -3.184361         0.887498         2.413165
 H        -2.235922         0.923607        -0.104685
 H         0.597730         1.561189         0.928050
 H        -0.098721        -0.091173         1.289867
 H        -0.762601         0.554357        -1.598624
 H        -1.472148         3.890759         0.071294
