19
Iteration:  2360
 O        -3.581655         4.383646         0.509689
 C        -3.361983         3.032700         0.923205
 C        -2.260483         3.100048         1.975752
 C        -2.054813         1.618437         2.482566
 C        -1.506781         1.153956         1.069829
 C         0.041886         0.927320         1.060834
 C         0.302467         0.509887        -0.316368
 O        -0.205543         1.081183        -1.256327
 C        -1.966719         2.507329         0.574235
 H        -3.861036         4.301397        -0.419746
 H        -4.257043         2.295166         1.072678
 H        -1.804138         4.102689         2.326711
 H        -1.277150         1.441635         3.157175
 H        -3.034934         1.100104         2.677365
 H        -2.143742         0.225112         0.787018
 H         0.606172         1.757302         1.348485
 H         0.178105         0.049916         1.701685
 H         1.101272        -0.332179        -0.516128
 H        -1.576287         3.048218        -0.260856
