19
Iteration:  2851charge 0 multiplicity 1
 O        -3.650883         4.710725         1.005998
 C        -3.497366         3.337322         1.099033
 C        -2.573267         2.968752         2.228846
 C        -2.205442         1.481039         2.332348
 C        -1.667952         1.474906         0.806061
 C        -0.211653         1.142740         0.555382
 C         0.205918         0.670614        -0.811268
 O         0.783467        -0.382222        -1.042185
 C        -1.977542         2.980095         0.770204
 H        -3.482364         5.093701         0.091102
 H        -4.160253         2.563577         0.713303
 H        -2.666773         3.678831         3.140338
 H        -1.240741         1.531102         2.941986
 H        -3.015352         0.788108         2.434370
 H        -2.220810         0.793565         0.174967
 H         0.496349         1.951512         0.655226
 H         0.424239         0.319979         1.234377
 H        -0.173131         1.252815        -1.676133
 H        -1.273492         3.685158         0.294715
