19
Iteration:  2946
 O        -3.784034         4.747540         1.135928
 C        -3.326209         3.443123         1.090792
 C        -2.386294         3.082026         2.189385
 C        -2.208148         1.582909         2.297898
 C        -1.794282         1.430356         0.741557
 C        -0.456797         0.739000         0.543474
 C         0.007050         0.280181        -0.815148
 O         1.191681         0.030121        -0.993273
 C        -1.933163         3.004385         0.669964
 H        -4.147792         4.974519         0.268113
 H        -4.143959         2.743112         0.714888
 H        -1.914266         3.830814         2.989717
 H        -1.325468         1.371338         2.771501
 H        -3.114321         1.004415         2.658205
 H        -2.694054         1.163760         0.157347
 H         0.361311         1.400605         1.014895
 H        -0.545721        -0.034034         1.186331
 H        -0.798252         0.169753        -1.552173
 H        -1.323820         3.784863         0.086769
