19
Iteration:  2560charge 0 multiplicity 1
 O        -3.594538         4.278700         0.350590
 C        -3.311796         2.991868         0.969622
 C        -2.376127         3.158718         2.143541
 C        -1.902436         1.679051         2.626240
 C        -1.615992         1.262496         1.173765
 C        -0.139432         0.731339         0.954602
 C         0.287467         0.478919        -0.442952
 O        -0.089354         1.143326        -1.387255
 C        -1.892738         2.634913         0.670057
 H        -3.705662         4.191668        -0.648299
 H        -4.045637         2.225754         0.844509
 H        -2.163027         4.102559         2.745382
 H        -1.111998         1.924627         3.229807
 H        -2.611919         0.995970         3.274545
 H        -2.317894         0.438816         0.963677
 H         0.562470         1.485144         1.447352
 H        -0.105905        -0.288540         1.403884
 H         0.854226        -0.534319        -0.511943
 H        -1.339841         3.082916        -0.141443
