19
Iteration:  3434
 O        -3.447631         4.845491         1.346381
 C        -3.119046         3.556343         0.890785
 C        -2.636245         2.673718         2.085989
 C        -2.515781         1.205789         1.635670
 C        -1.403665         1.731106         0.584734
 C         0.020661         1.185378         0.699625
 C         0.371112         0.099863        -0.218460
 O        -0.282490        -0.113595        -1.227857
 C        -1.639690         3.148871         1.079912
 H        -3.235703         5.492478         0.594284
 H        -3.661079         3.029451         0.070248
 H        -2.717926         2.969871         3.154806
 H        -2.256604         0.433399         2.401062
 H        -3.560778         0.880870         1.207887
 H        -1.668605         1.672949        -0.498373
 H         0.863457         1.866985         0.434934
 H         0.283335         0.766478         1.615288
 H         1.254512        -0.466353        -0.013558
 H        -0.890410         4.023693         1.231462
