19
Iteration:  2086
 O        -3.927247         4.739346         1.182741
 C        -3.381472         3.376924         1.096868
 C        -2.334422         3.105064         2.148136
 C        -2.149993         1.569817         2.241649
 C        -1.790165         1.546923         0.713801
 C        -0.245930         0.916706         0.635754
 C         0.208411         0.542663        -0.755805
 O         0.994655        -0.362990        -1.035624
 C        -1.969299         2.987811         0.620479
 H        -4.334126         4.928148         0.315556
 H        -4.235002         2.701918         0.935023
 H        -2.276665         3.907811         2.910211
 H        -1.352614         1.133238         2.782270
 H        -3.100336         0.939518         2.619256
 H        -2.462949         0.974771         0.107533
 H         0.436947         1.534002         1.167383
 H        -0.300508        -0.039842         1.271912
 H        -0.275890         1.208440        -1.535316
 H        -1.527620         3.724675        -0.146010
