19
Iteration:  3188charge 0 multiplicity 1
 O        -3.160047         4.663885         0.599151
 C        -3.007146         3.352025         0.931679
 C        -2.204131         2.958109         2.178483
 C        -2.287580         1.458446         2.413823
 C        -1.947438         1.169231         0.920740
 C        -0.655370         0.230767         0.860766
 C         0.153234         0.372282        -0.423807
 O         0.146816         1.329042        -1.188144
 C        -1.731702         2.715443         0.691448
 H        -3.492455         4.656165        -0.352968
 H        -3.983886         2.711850         0.814333
 H        -1.543735         3.744333         2.685687
 H        -1.510010         1.211701         3.200816
 H        -3.342307         1.040996         2.711814
 H        -2.775754         0.700879         0.283843
 H        -0.165837         0.487663         1.798822
 H        -1.184689        -0.669274         1.171034
 H         0.980457        -0.444169        -0.595742
 H        -0.924852         3.237241         0.000932
