19
Iteration:  2359charge 0 multiplicity 1
 O        -3.581194         4.382418         0.514486
 C        -3.354224         3.024752         0.913708
 C        -2.263619         3.110330         1.986838
 C        -2.063690         1.621821         2.477533
 C        -1.505653         1.159065         1.073231
 C         0.039201         0.924985         1.060268
 C         0.303870         0.508090        -0.314842
 O        -0.212434         1.080393        -1.256285
 C        -1.966376         2.506786         0.570365
 H        -3.866063         4.301653        -0.435610
 H        -4.222188         2.309578         1.043775
 H        -1.806707         4.084541         2.308158
 H        -1.235033         1.433234         3.167979
 H        -3.031422         1.066958         2.658943
 H        -2.106389         0.236901         0.812194
 H         0.605885         1.747335         1.377506
 H         0.214481         0.053573         1.663550
 H         1.118006        -0.335166        -0.528772
 H        -1.588842         3.049450        -0.234972
