19
Iteration:  2322
 O        -3.664891         4.329582         0.454428
 C        -3.207912         2.972406         0.783919
 C        -2.345089         3.055384         2.053449
 C        -2.048167         1.637893         2.579398
 C        -1.551477         1.216666         1.160477
 C        -0.117281         0.813705         1.024459
 C         0.348819         0.658579        -0.383545
 O        -0.322933         0.900506        -1.376516
 C        -1.731621         2.713612         0.763525
 H        -3.778897         4.488861        -0.531592
 H        -3.901320         2.247423         0.563935
 H        -2.283185         4.048117         2.455053
 H        -1.144106         1.582582         3.356764
 H        -2.801310         1.054179         3.126037
 H        -2.083120         0.532714         0.550257
 H         0.595289         1.586129         1.474389
 H         0.209397        -0.111337         1.507989
 H         1.514101         0.377557        -0.429970
 H        -1.042481         3.304769         0.064720
