19
Iteration:    49charge 0 multiplicity 1
 O        -3.573914         4.960631         1.638012
 C        -2.745220         3.925881         1.010342
 C        -3.130416         2.494489         0.982164
 C        -2.201509         1.705394         0.009951
 C        -0.933439         2.143335         0.847482
 C        -0.269969         0.785339         1.147676
 C         0.230591         0.289430        -0.152232
 O        -0.111846        -0.806980        -0.555910
 C        -1.854336         2.930762         1.847355
 H        -3.946799         5.466202         0.869020
 H        -2.255269         4.349596         0.085474
 H        -3.935228         1.995821         1.579290
 H        -2.373369         0.562848         0.219703
 H        -2.317007         2.040150        -1.092537
 H        -0.217826         2.766303         0.329948
 H         0.609601         0.778832         1.909390
 H        -0.978629         0.032187         1.605289
 H         0.758115         0.992751        -0.860866
 H        -1.856283         2.837605         2.954884
