19
Iteration:  4960charge 0 multiplicity 1
 O        -3.617836         4.443447         1.922983
 C        -2.494578         3.982700         1.278644
 C        -2.594711         2.968602         0.180396
 C        -1.226189         2.756216        -0.320157
 C        -0.789052         2.122306         1.123394
 C        -0.658471         0.491849         1.332778
 C        -0.657245        -0.524702         0.280322
 O        -0.459560        -0.353130        -0.915512
 C        -2.083690         2.620657         1.637990
 H        -3.433056         4.469705         2.910359
 H        -1.748068         4.838138         0.981418
 H        -3.564536         2.547503        -0.131216
 H        -1.059771         2.015472        -1.069039
 H        -0.708863         3.748997        -0.589342
 H         0.136215         2.526824         1.814843
 H         0.256967         0.127400         1.812935
 H        -1.486721         0.176545         2.113243
 H        -0.861202        -1.567948         0.546335
 H        -2.597810         2.241013         2.532103
