19
Iteration:  3786
 O        -3.219863         4.956731         2.038173
 C        -2.981980         3.992614         1.012095
 C        -3.096891         2.547850         1.567364
 C        -2.931588         1.446782         0.506139
 C        -1.449556         2.102082         0.166970
 C        -0.332471         1.113628         0.542610
 C        -0.083178        -0.183781        -0.273661
 O         0.994105        -0.722261        -0.303090
 C        -1.761838         3.162766         1.306425
 H        -2.492176         5.618637         1.823567
 H        -3.227405         4.305585        -0.051241
 H        -3.684783         2.497772         2.444763
 H        -2.755432         0.381638         0.989234
 H        -3.675945         1.183857        -0.295138
 H        -1.237135         2.511920        -0.835263
 H         0.688107         1.488937         0.312259
 H        -0.292506         0.739323         1.645310
 H        -1.096454        -0.554033        -0.710856
 H        -1.261080         3.470281         2.216941
