19
Iteration:  3245charge 0 multiplicity 1
 O        -3.124290         4.871291         0.865060
 C        -3.121369         3.440915         0.986597
 C        -2.387309         2.929314         2.142076
 C        -2.529890         1.401415         2.343897
 C        -1.864858         1.143683         0.902491
 C        -0.405331         0.511811         0.898334
 C         0.409812         0.523735        -0.350482
 O         0.059574         0.776874        -1.503658
 C        -1.809935         2.663036         0.638257
 H        -2.749020         5.068554         0.020486
 H        -4.161209         2.959700         0.783836
 H        -2.082900         3.701244         2.821151
 H        -2.005611         1.058479         3.188588
 H        -3.590016         1.005148         2.551497
 H        -2.467972         0.533811         0.194704
 H         0.263749         0.912289         1.730081
 H        -0.398094        -0.607013         1.212578
 H         1.383791         0.167233        -0.037795
 H        -0.975986         3.089163         0.183392
