19
Iteration:  1909charge 0 multiplicity 1
 O        -3.477016         4.662414         0.699733
 C        -3.237647         3.329467         0.975910
 C        -2.408165         3.018034         2.092451
 C        -2.320808         1.538459         2.363137
 C        -1.682787         1.283701         0.939384
 C        -0.277968         0.652525         1.024564
 C         0.131032         0.195244        -0.395258
 O         0.350762         0.884640        -1.376879
 C        -1.803322         2.750611         0.675948
 H        -3.019080         4.911493        -0.133095
 H        -4.053764         2.634405         0.959399
 H        -2.061465         3.831395         2.698026
 H        -1.652059         1.358164         3.132218
 H        -3.267964         0.925451         2.376663
 H        -2.176373         0.452765         0.285425
 H         0.438050         1.305403         1.380016
 H        -0.294570        -0.236037         1.607114
 H         0.120410        -0.880557        -0.547052
 H        -1.141032         3.354458         0.131735
