19
Iteration:  1662charge 0 multiplicity 1
 O        -3.511882         4.803809         0.911780
 C        -3.302757         3.417342         1.037911
 C        -2.511624         2.967780         2.131908
 C        -2.374156         1.427344         2.110490
 C        -1.567443         1.322699         0.780822
 C        -0.126954         0.929593         0.895637
 C         0.498275         0.257742        -0.282536
 O         0.006456         0.251154        -1.374056
 C        -1.773860         2.951635         0.720359
 H        -3.187311         5.020833         0.003783
 H        -4.186659         2.774599         0.704993
 H        -2.366849         3.593228         3.052656
 H        -1.807343         0.959840         3.050993
 H        -3.238217         0.769333         2.014866
 H        -2.163069         0.900094        -0.165940
 H         0.405727         1.808024         1.344242
 H        -0.143382        -0.023526         1.594313
 H         1.497235        -0.150823         0.048200
 H        -1.155973         3.785801         0.186520
