19
Iteration:  3319charge 0 multiplicity 1
 O        -3.280840         4.872810         1.118040
 C        -3.081619         3.497493         0.964654
 C        -2.568812         2.836150         2.124664
 C        -2.652202         1.278205         1.984715
 C        -1.590143         1.380092         0.743734
 C        -0.131958         0.824852         0.907767
 C         0.476869         0.516319        -0.391737
 O        -0.217344         0.120477        -1.368477
 C        -1.627283         2.955789         0.808516
 H        -3.096216         5.316290         0.225048
 H        -3.943827         3.087466         0.413467
 H        -2.412844         3.392438         3.016219
 H        -2.183836         0.692109         2.856149
 H        -3.649461         0.803171         1.651887
 H        -1.941928         1.053207        -0.310481
 H         0.456859         1.481457         1.535095
 H        -0.220337        -0.082386         1.569065
 H         1.558391         0.791898        -0.426115
 H        -0.829465         3.704822         0.947907
