19
Iteration:  2349charge 0 multiplicity 1
 O        -3.592128         4.330861         0.524910
 C        -3.234336         3.018362         0.885831
 C        -2.324616         3.075050         2.027164
 C        -2.069749         1.647494         2.471670
 C        -1.508595         1.228924         1.166054
 C        -0.019481         0.876769         1.084279
 C         0.355417         0.543372        -0.377418
 O        -0.278028         1.047756        -1.272250
 C        -1.938523         2.559548         0.498007
 H        -3.877508         4.471158        -0.433309
 H        -4.209429         2.343438         0.846368
 H        -1.926347         4.073802         2.442362
 H        -1.476412         1.551628         3.347165
 H        -2.931194         1.013523         2.826567
 H        -1.873876         0.228891         0.619048
 H         0.567397         1.659331         1.459432
 H         0.408838         0.056959         1.687045
 H         1.130842        -0.314585        -0.529550
 H        -1.357204         3.083950        -0.207212
