19
Iteration:  3875charge 0 multiplicity 1
 O        -2.972130         5.089343         1.652525
 C        -2.870879         3.916252         0.951523
 C        -3.184115         2.607888         1.618849
 C        -3.037366         1.406011         0.577795
 C        -1.491388         1.852057         0.486720
 C        -0.560715         0.663247         0.953185
 C        -0.101776        -0.109527        -0.280826
 O         1.082097        -0.100723        -0.678789
 C        -1.745737         2.951926         1.479537
 H        -2.199972         5.703423         1.403872
 H        -3.129038         3.888593        -0.163085
 H        -3.918405         2.564898         2.428353
 H        -3.392553         0.412081         1.051357
 H        -3.555048         1.277973        -0.454234
 H        -1.282073         2.071028        -0.491335
 H         0.380660         1.090478         1.462527
 H        -1.096832         0.174016         1.820957
 H        -0.847531        -0.396083        -1.098975
 H        -1.099169         3.540623         2.239647
