19
Iteration:  4988
 O        -3.685354         4.566632         1.755143
 C        -2.462034         3.990379         1.356781
 C        -2.564048         2.869049         0.321919
 C        -1.210279         2.521547        -0.244498
 C        -0.728831         2.072405         1.154239
 C        -0.571521         0.538424         1.413202
 C        -0.648327        -0.369327         0.186544
 O        -0.543301        -0.281274        -1.025095
 C        -2.126309         2.544981         1.705360
 H        -3.645251         4.986077         2.670486
 H        -1.767823         4.736205         1.121636
 H        -3.562709         2.689424        -0.012252
 H        -1.106253         1.658627        -0.950942
 H        -0.685470         3.399500        -0.551512
 H         0.083136         2.547219         1.555390
 H         0.431004         0.160090         1.768024
 H        -1.230308         0.217782         2.143113
 H        -0.781039        -1.445597         0.470755
 H        -2.696025         2.059403         2.580331
