19
Iteration:  1421charge 0 multiplicity 1
 O        -3.738807         4.582803         1.561687
 C        -3.139077         3.501759         0.980936
 C        -2.508420         2.601161         1.952549
 C        -2.361346         1.195175         1.220483
 C        -1.368295         2.038295         0.317673
 C         0.175840         1.510327         0.339286
 C         0.122474         0.060223         0.268211
 O        -0.110427        -0.458600        -0.821702
 C        -1.602273         3.398626         0.928715
 H        -3.920503         5.332665         0.960935
 H        -3.644734         3.099115         0.097889
 H        -2.717568         2.789659         3.070112
 H        -1.692736         0.549238         1.974735
 H        -3.262392         0.816735         0.809394
 H        -1.671027         1.930990        -0.737277
 H         0.721521         2.025736        -0.410972
 H         0.386173         1.773688         1.359475
 H         0.168340        -0.661520         1.197683
 H        -0.944558         4.264806         0.953244
