19
Iteration:  3876charge 0 multiplicity 1
 O        -2.971293         5.087004         1.647857
 C        -2.860312         3.917903         0.947406
 C        -3.189989         2.607706         1.616820
 C        -3.042010         1.404448         0.575176
 C        -1.496847         1.850198         0.500822
 C        -0.569425         0.659474         0.955812
 C        -0.089743        -0.108072        -0.282738
 O         1.082230        -0.095588        -0.686635
 C        -1.746151         2.946053         1.483657
 H        -2.198056         5.699823         1.422947
 H        -3.094594         3.858044        -0.135459
 H        -3.958173         2.632594         2.453635
 H        -3.366009         0.452160         1.021267
 H        -3.558949         1.266279        -0.439481
 H        -1.291652         2.053970        -0.495911
 H         0.389778         1.127268         1.448614
 H        -1.086862         0.173178         1.846713
 H        -0.872683        -0.396573        -1.063184
 H        -1.088353         3.536791         2.217341
