19
Iteration:  2233
 O        -3.713607         4.402266         0.612762
 C        -3.148268         3.116529         0.766678
 C        -2.461608         3.009363         2.153115
 C        -2.058274         1.573750         2.496194
 C        -1.565620         1.310303         1.093803
 C        -0.138366         0.868215         0.949229
 C         0.329337         0.946037        -0.492387
 O        -0.104223         0.255757        -1.393027
 C        -1.725477         2.867186         0.812708
 H        -3.936913         4.512374        -0.366096
 H        -3.721804         2.309593         0.477324
 H        -2.238976         4.036509         2.653122
 H        -1.378540         1.458164         3.485211
 H        -2.930971         0.923550         2.789514
 H        -2.208671         0.787569         0.439696
 H         0.499046         1.430042         1.668602
 H        -0.035732        -0.101996         1.341841
 H         0.857750         1.831729        -0.773334
 H        -0.942313         3.578711         0.581610
