19
Iteration:  4086
 O        -3.141553         5.031307         1.868376
 C        -2.670094         3.947577         1.018610
 C        -3.293836         2.561956         1.207113
 C        -2.743232         1.542685         0.158007
 C        -1.239053         1.870970         0.465401
 C        -0.484526         0.849546         1.129045
 C         0.269151        -0.187313         0.241450
 O         0.269113        -0.262922        -1.027941
 C        -1.827755         2.956828         1.595327
 H        -2.327831         5.548541         2.109163
 H        -2.387549         4.375483         0.077873
 H        -3.981592         2.320849         1.964511
 H        -3.080661         0.554733         0.086892
 H        -3.015007         2.012844        -0.816851
 H        -0.713908         2.228028        -0.417480
 H         0.420358         1.166824         1.658613
 H        -1.118468         0.396623         1.907529
 H         1.042477        -0.782360         0.819906
 H        -1.331109         2.969957         2.589200
