19
Iteration:  1433
 O        -3.759032         4.623667         1.542886
 C        -3.151379         3.493451         0.920403
 C        -2.544580         2.596433         1.981730
 C        -2.279115         1.293050         1.322163
 C        -1.287213         2.039300         0.261918
 C         0.085211         1.539498         0.475255
 C         0.144056         0.008268         0.162298
 O        -0.118948        -0.511054        -0.883586
 C        -1.671245         3.371983         0.991036
 H        -3.790063         5.307242         0.830698
 H        -3.739104         3.007394         0.099155
 H        -2.616333         2.853175         3.046862
 H        -1.771006         0.412620         1.905664
 H        -3.095317         0.742152         0.896656
 H        -1.596540         1.987006        -0.823445
 H         0.780539         1.943249        -0.280199
 H         0.620523         1.776574         1.349354
 H         0.436170        -0.597232         1.127978
 H        -1.073978         4.238950         1.128800
