19
Iteration:  3344
 O        -3.353648         4.901404         1.161577
 C        -3.131833         3.535594         0.853997
 C        -2.637991         2.839588         2.161499
 C        -2.509411         1.260658         1.959646
 C        -1.571955         1.523602         0.762507
 C        -0.126879         0.870325         0.871348
 C         0.463854         0.407392        -0.472432
 O        -0.152185        -0.075196        -1.413581
 C        -1.656728         3.058007         1.042046
 H        -2.780584         5.481545         0.609852
 H        -3.929482         3.164900         0.095440
 H        -2.948987         3.403953         3.052362
 H        -2.047008         0.593241         2.642711
 H        -3.439707         0.712014         1.417824
 H        -2.003006         1.313111        -0.262915
 H         0.465367         1.481219         1.563499
 H        -0.244137        -0.007535         1.416525
 H         1.605275         0.554039        -0.439283
 H        -0.869103         3.738227         0.974561
