19
Iteration:   598
 O        -3.109591         4.888492         1.585606
 C        -2.875001         3.775825         0.762155
 C        -3.322712         2.618973         1.513718
 C        -2.941872         1.359277         0.582606
 C        -1.434898         1.773906         0.600447
 C        -0.206079         0.898039         1.160217
 C        -0.051258        -0.095098        -0.016402
 O         0.880982         0.031857        -0.794642
 C        -1.767423         2.973824         1.401262
 H        -3.035979         5.738779         1.134264
 H        -3.033888         3.995601        -0.274162
 H        -3.950193         2.710299         2.392082
 H        -3.222801         0.386036         0.898393
 H        -3.457035         1.607031        -0.388580
 H        -1.002151         2.039001        -0.315945
 H         0.712286         1.486878         1.055237
 H        -0.377704         0.503950         2.245787
 H        -0.941443        -0.793148        -0.230278
 H        -1.136550         3.535004         1.995073
