19
Iteration:   175charge 0 multiplicity 1
 O        -3.462040         4.752644         1.908897
 C        -2.795537         3.988683         0.926879
 C        -3.170885         2.508700         1.134517
 C        -2.701442         1.705908        -0.086977
 C        -1.100534         2.081569         0.406586
 C        -0.225339         1.002016         1.125611
 C         0.528916         0.029527         0.242076
 O         0.006461        -0.742079        -0.527108
 C        -1.746365         3.023593         1.434815
 H        -3.225090         5.716609         1.884859
 H        -2.730635         4.563254         0.034720
 H        -3.979389         2.476944         1.886446
 H        -2.889638         0.632466        -0.103316
 H        -3.204937         2.214982        -1.056533
 H        -0.453566         2.730393        -0.189491
 H         0.500256         1.519968         1.769734
 H        -0.818017         0.366003         1.810552
 H         1.633819        -0.007071         0.379999
 H        -1.342352         3.101086         2.493623
