19
Iteration:  3925
 O        -2.971912         5.111944         1.536326
 C        -2.490293         3.928252         0.873460
 C        -3.378028         2.703336         1.442254
 C        -3.123742         1.363987         0.695028
 C        -1.665300         1.670507         0.647893
 C        -0.519471         0.662368         1.033040
 C        -0.029454        -0.136284        -0.277523
 O         1.009399         0.142760        -0.845863
 C        -1.793030         2.810707         1.659075
 H        -2.194370         5.664538         1.614806
 H        -2.199002         4.027890        -0.188532
 H        -4.267480         2.793966         2.054978
 H        -3.294242         0.437734         1.237970
 H        -3.688765         1.151019        -0.144928
 H        -1.115425         2.076725        -0.318223
 H         0.277847         1.357174         1.229840
 H        -0.543093         0.004852         1.907890
 H        -0.668143        -1.028347        -0.662652
 H        -1.209302         3.013674         2.551140
