19
Iteration:  4092
 O        -3.132349         4.973204         1.856842
 C        -2.683232         3.941417         1.061400
 C        -3.266065         2.572057         1.211102
 C        -2.698848         1.573357         0.120674
 C        -1.294856         1.945959         0.468970
 C        -0.469274         0.859290         1.102235
 C         0.265260        -0.120492         0.224540
 O         0.218663        -0.310016        -0.962496
 C        -1.785691         2.903935         1.580368
 H        -2.341791         5.432711         2.097637
 H        -2.335133         4.337858         0.045657
 H        -4.162256         2.487160         1.911168
 H        -3.129628         0.488595         0.097974
 H        -2.872129         1.912950        -0.924830
 H        -0.727442         2.404044        -0.429052
 H         0.375193         1.369047         1.675370
 H        -1.037631         0.251165         1.842643
 H         1.048252        -0.650599         0.813254
 H        -1.330946         2.840303         2.537896
