19
Iteration:  3381
 O        -3.415019         4.924609         1.166991
 C        -3.051440         3.573850         0.930040
 C        -2.784226         2.808818         2.218313
 C        -2.435278         1.205902         1.819871
 C        -1.523726         1.662955         0.669239
 C        -0.187945         1.056824         0.743793
 C         0.442970         0.261069        -0.456194
 O        -0.098077        -0.231252        -1.413124
 C        -1.644071         3.104340         1.246724
 H        -3.080190         5.458903         0.363721
 H        -3.607083         3.015265         0.186319
 H        -3.294851         3.305646         3.072835
 H        -1.951794         0.688058         2.700482
 H        -3.291310         0.638856         1.618839
 H        -1.965677         1.517473        -0.255520
 H         0.661396         1.674550         1.070018
 H        -0.245585         0.205318         1.435131
 H         1.590922         0.027292        -0.387387
 H        -0.739695         3.884026         1.254233
