19
Iteration:  2368charge 0 multiplicity 1
 O        -3.593609         4.376508         0.473858
 C        -3.409691         3.083910         1.028223
 C        -2.216788         3.015392         1.901601
 C        -2.008045         1.607720         2.495928
 C        -1.561149         1.125879         1.074296
 C        -0.002605         0.911664         1.083228
 C         0.327998         0.515485        -0.333201
 O        -0.152891         1.093245        -1.284539
 C        -1.969849         2.537205         0.548454
 H        -3.877884         4.342954        -0.471072
 H        -4.270863         2.527927         1.217299
 H        -1.982961         3.892339         2.434408
 H        -1.339774         1.498915         3.478490
 H        -2.997341         1.310808         2.937598
 H        -2.049310         0.349280         0.536360
 H         0.574209         1.855891         1.238559
 H         0.143376         0.231319         1.901182
 H         0.982131        -0.421856        -0.437476
 H        -1.494749         2.948261        -0.283694
