19
Iteration:  2567charge 0 multiplicity 1
 O        -3.547679         4.324491         0.357221
 C        -3.313933         2.974931         0.946934
 C        -2.357790         3.088169         2.099569
 C        -1.947584         1.707882         2.663803
 C        -1.548455         1.199525         1.161128
 C        -0.182655         0.810715         0.999173
 C         0.282242         0.519216        -0.432746
 O        -0.138404         1.125448        -1.403151
 C        -1.888939         2.583930         0.714199
 H        -3.622917         4.047799        -0.575866
 H        -4.143454         2.260003         0.750121
 H        -2.363664         3.963915         2.635717
 H        -0.909048         1.931794         3.122151
 H        -2.598653         1.098805         3.242353
 H        -2.302358         0.528206         0.714343
 H         0.637200         1.447855         1.402784
 H         0.038029        -0.109385         1.526449
 H         0.866388        -0.404153        -0.581339
 H        -1.479714         3.047476        -0.163593
