19
Iteration:   643
 O        -3.389523         5.134928         1.355296
 C        -2.794534         3.810994         0.915929
 C        -3.239243         2.526131         1.608507
 C        -2.866094         1.397756         0.764329
 C        -1.333162         1.896528         0.537067
 C        -0.458808         0.758523         0.921203
 C        -0.016348        -0.254240        -0.183442
 O         1.030264         0.002150        -0.767486
 C        -1.734523         3.006225         1.591909
 H        -2.700283         5.772462         1.565778
 H        -2.803462         3.790020        -0.187987
 H        -4.017925         2.618064         2.465794
 H        -2.811006         0.568821         1.472819
 H        -3.505204         1.148612        -0.139901
 H        -1.145731         2.324306        -0.410015
 H         0.539895         1.171943         1.235597
 H        -0.985738         0.236436         1.850481
 H        -0.688307        -1.128167        -0.419682
 H        -1.119084         3.207014         2.498447
