19
Iteration:  4758charge 0 multiplicity 1
 O        -3.102715         4.868699         1.951409
 C        -2.195672         4.063531         1.269493
 C        -2.929758         3.022971         0.432907
 C        -2.084272         2.160093        -0.374402
 C        -1.354371         1.684541         0.892660
 C        -1.259931         0.229469         1.028239
 C         0.065724        -0.243137         0.396153
 O         0.307008        -0.026218        -0.777235
 C        -2.246528         2.572178         1.750362
 H        -2.566910         5.073558         2.775807
 H        -1.284256         4.594351         0.990636
 H        -3.943306         3.338258         0.128452
 H        -2.808185         1.353849        -0.610456
 H        -1.503234         2.465370        -1.208855
 H        -0.231917         2.070404         1.001095
 H        -1.151753         0.011039         2.121423
 H        -2.174408        -0.325020         0.675351
 H         0.796653        -0.649494         1.134249
 H        -2.659731         2.309852         2.673348
