19
Iteration:  3330charge 0 multiplicity 1
 O        -3.335504         4.917060         1.148701
 C        -3.065577         3.519455         0.915576
 C        -2.636332         2.774042         2.159642
 C        -2.594689         1.317205         1.907239
 C        -1.528154         1.449216         0.782723
 C        -0.153183         0.853187         0.953519
 C         0.455850         0.493191        -0.475888
 O        -0.169870         0.030663        -1.372759
 C        -1.671768         2.993587         0.900021
 H        -2.931734         5.441187         0.415755
 H        -3.748830         2.976212         0.238074
 H        -2.572986         3.177659         3.128475
 H        -2.240838         0.896237         2.896556
 H        -3.651625         0.902085         1.751767
 H        -1.937770         0.900466        -0.163268
 H         0.628856         1.422817         1.413851
 H        -0.179042        -0.192637         1.381681
 H         1.560455         0.487397        -0.584359
 H        -0.852141         3.629855         0.574774
