19
Iteration:  3539
 O        -3.596346         4.753513         1.754363
 C        -2.959525         3.717017         1.078031
 C        -2.807111         2.475622         1.876353
 C        -2.389497         1.301960         0.997809
 C        -1.358270         2.134405         0.235138
 C         0.052623         1.489192         0.432909
 C         0.271339         0.026281        -0.028124
 O        -0.319187        -0.765705        -0.763740
 C        -1.572502         3.289750         1.160571
 H        -3.537704         5.597849         1.211452
 H        -3.340711         3.619662         0.049531
 H        -3.195186         2.306770         2.930042
 H        -1.839540         0.586092         1.554114
 H        -3.106258         0.818640         0.309254
 H        -1.406139         2.312786        -0.864321
 H         0.883917         1.940966        -0.137144
 H         0.460946         1.603410         1.505330
 H         1.324615        -0.142562         0.216846
 H        -0.793740         3.909402         1.562207
