19
Iteration:  2042
 O        -3.830393         4.694822         1.001907
 C        -3.330805         3.342391         1.083078
 C        -2.472052         3.087632         2.300254
 C        -2.115438         1.527896         2.319988
 C        -1.726446         1.472850         0.752428
 C        -0.407901         0.968175         0.459787
 C        -0.011450         0.353549        -0.855452
 O         1.095745        -0.145687        -0.985808
 C        -1.903835         3.142416         0.831131
 H        -3.839838         4.999747         0.074393
 H        -4.042190         2.577906         0.795761
 H        -2.465296         3.883194         3.103421
 H        -1.370325         1.224028         3.000453
 H        -3.067835         0.819438         2.616582
 H        -2.411063         0.912223         0.113536
 H         0.360280         1.611560         0.746418
 H        -0.143477         0.118013         1.133063
 H        -0.817155         0.192383        -1.560181
 H        -1.138853         3.730944         0.216059
