19
Iteration:  4708
 O        -2.804342         4.998307         2.128927
 C        -2.325066         3.957488         1.351538
 C        -3.285317         3.078797         0.419073
 C        -2.338915         2.317942        -0.558952
 C        -1.355204         1.807019         0.589092
 C        -1.075089         0.315902         1.024000
 C         0.099620        -0.407008         0.482978
 O         0.622344        -0.207644        -0.636134
 C        -2.487063         2.510744         1.694193
 H        -2.296958         4.854142         2.919528
 H        -1.344332         4.300896         0.875826
 H        -4.399852         3.036633         0.464248
 H        -2.732400         1.423287        -1.147887
 H        -1.721097         2.925304        -1.319978
 H        -0.441935         2.327990         0.588290
 H        -0.746191         0.385152         2.060434
 H        -1.971585        -0.323123         1.044072
 H         0.433946        -1.131525         1.141885
 H        -2.965501         2.178734         2.685948
