19
Iteration:  2437
 O        -3.801678         4.399147         0.600770
 C        -3.409624         3.100615         1.049573
 C        -2.255372         3.221848         2.023381
 C        -1.918741         1.849083         2.579583
 C        -1.675979         1.172847         1.124692
 C        -0.257253         0.661741         0.925641
 C         0.430294         0.359097        -0.445636
 O         0.348783         1.083962        -1.421605
 C        -2.117067         2.495899         0.558519
 H        -3.968641         4.295181        -0.389274
 H        -4.342844         2.513689         1.279815
 H        -1.831092         4.204419         2.388787
 H        -1.057210         1.666365         3.213005
 H        -2.768237         1.244852         3.144323
 H        -2.419010         0.339733         0.862935
 H         0.440613         1.374981         1.443375
 H        -0.234762        -0.351020         1.334702
 H         1.063221        -0.500610        -0.389197
 H        -1.522855         2.775105        -0.380899
