19
Iteration:  3278charge 0 multiplicity 1
 O        -3.062246         4.798828         0.936370
 C        -3.051477         3.397824         1.022416
 C        -2.468595         2.833719         2.179021
 C        -2.536115         1.271284         2.135435
 C        -1.793388         1.343345         0.754286
 C        -0.394845         0.761675         0.995970
 C         0.401380         0.591475        -0.308582
 O        -0.090655         0.465508        -1.434478
 C        -1.746052         2.848042         0.665419
 H        -3.302477         5.036305         0.037080
 H        -4.041022         2.872042         0.679477
 H        -2.263284         3.498574         2.962123
 H        -1.907102         0.869610         2.849914
 H        -3.628092         0.866574         2.152444
 H        -2.368994         0.745087         0.034183
 H         0.324412         1.377323         1.541196
 H        -0.301308        -0.253249         1.291184
 H         1.517515         0.561888        -0.238283
 H        -0.840544         3.242017         0.505771
