19
Iteration:  1191
 O        -3.801038         4.782123         1.442363
 C        -3.083281         3.593493         0.942442
 C        -2.847650         2.483418         1.854676
 C        -2.289713         1.184549         1.120453
 C        -1.221336         2.053646         0.459490
 C         0.228459         1.436956         0.516919
 C         0.349983         0.309117        -0.471351
 O        -0.300288        -0.721529        -0.421000
 C        -1.625684         3.274199         1.386999
 H        -3.698121         5.363253         0.668617
 H        -3.297567         3.360870        -0.145329
 H        -3.316095         2.358495         2.772333
 H        -1.820728         0.470045         1.815856
 H        -2.927494         0.687795         0.459397
 H        -1.375253         2.356264        -0.576570
 H         0.872417         2.220680         0.013339
 H         0.566559         1.162719         1.502760
 H         1.293696         0.457196        -1.237724
 H        -1.159753         4.138195         1.898170
