19
Iteration:  2285charge 0 multiplicity 1
 O        -3.699024         4.281951         0.341844
 C        -3.257523         3.034002         0.838399
 C        -2.420970         3.094130         2.188032
 C        -2.021313         1.603271         2.606756
 C        -1.435875         1.379974         1.187149
 C        -0.130824         0.648225         0.939055
 C         0.363496         0.832056        -0.452188
 O        -0.269511         0.618085        -1.456197
 C        -1.715667         2.920462         0.932646
 H        -3.399520         4.273043        -0.592428
 H        -3.893255         2.083557         0.612738
 H        -2.554650         3.998732         2.919460
 H        -1.239875         1.642571         3.261719
 H        -2.880121         1.035625         3.013906
 H        -2.145069         0.974829         0.365614
 H         0.728217         0.930709         1.638811
 H        -0.366048        -0.497390         1.173499
 H         1.524865         1.067783        -0.557317
 H        -1.202131         3.551311         0.277138
