19
Iteration:  2291charge 0 multiplicity 1
 O        -3.707428         4.296036         0.320531
 C        -3.226579         3.028166         0.899582
 C        -2.426038         3.055080         2.203096
 C        -2.027881         1.603408         2.610687
 C        -1.478918         1.335177         1.186116
 C        -0.149384         0.693795         0.970287
 C         0.394276         0.777212        -0.459180
 O        -0.288241         0.668983        -1.447807
 C        -1.681823         2.903369         0.868291
 H        -3.443705         4.319843        -0.587740
 H        -3.795775         2.148642         0.608585
 H        -2.663699         3.918855         2.707007
 H        -1.109341         1.816800         3.323549
 H        -2.846336         1.035366         3.070091
 H        -2.091497         0.890043         0.367140
 H         0.659065         0.989175         1.586588
 H        -0.325346        -0.335862         1.084324
 H         1.428012         1.065299        -0.485524
 H        -1.074343         3.562332         0.179156
