19
Iteration:  1609charge 0 multiplicity 1
 O        -3.623834         4.775168         1.065465
 C        -3.121024         3.476644         0.786854
 C        -2.581331         2.856621         2.187413
 C        -2.385004         1.392716         2.029412
 C        -1.599820         1.553293         0.729887
 C        -0.125960         1.030985         0.770736
 C         0.507134         0.437276        -0.380410
 O        -0.022756        -0.209600        -1.245920
 C        -1.689534         3.039662         0.996141
 H        -3.691621         5.228133         0.185483
 H        -3.481950         2.808235        -0.043605
 H        -2.938812         3.426903         3.069440
 H        -1.662706         0.935884         2.814547
 H        -3.240784         0.751646         1.744256
 H        -2.155746         1.579850        -0.191304
 H         0.335651         1.948321         1.165490
 H        -0.048968         0.232306         1.568110
 H         1.678854         0.410210        -0.476007
 H        -0.841120         3.770584         0.796449
