19
Iteration:  3779charge 0 multiplicity 1
 O        -3.187870         4.908118         2.018343
 C        -3.003255         4.013632         1.016310
 C        -3.133619         2.551745         1.565995
 C        -2.893764         1.425529         0.462219
 C        -1.448105         2.101305         0.189639
 C        -0.258127         1.158827         0.503818
 C        -0.115668        -0.163474        -0.282373
 O         0.954718        -0.777403        -0.273705
 C        -1.822613         3.172689         1.327796
 H        -2.511183         5.652972         1.926699
 H        -3.415703         4.178986         0.057445
 H        -3.485908         2.524535         2.604903
 H        -2.646657         0.569840         0.961267
 H        -3.600430         1.140737        -0.308067
 H        -1.141218         2.788680        -0.751957
 H         0.731235         1.732672         0.322501
 H        -0.257428         1.015051         1.576312
 H        -1.040913        -0.683406        -0.678943
 H        -1.100609         3.437594         2.208440
