19
Iteration:  4068
 O        -3.153692         5.056123         1.834745
 C        -2.756970         4.010850         0.955069
 C        -3.200810         2.607939         1.306133
 C        -2.821509         1.614209         0.159535
 C        -1.298278         1.896887         0.549632
 C        -0.410450         0.644422         1.156735
 C         0.249873        -0.316293         0.208182
 O         0.370658        -0.108767        -1.024874
 C        -1.787580         2.914400         1.520401
 H        -2.367262         5.629428         1.998583
 H        -2.801336         4.296498        -0.108803
 H        -4.103684         2.496597         1.938563
 H        -3.094839         0.603205         0.551890
 H        -3.186852         1.611689        -0.947839
 H        -0.696732         2.373628        -0.204718
 H         0.401890         1.196774         1.750233
 H        -0.921975        -0.082290         1.869046
 H         0.593919        -1.304437         0.593619
 H        -1.302107         3.153310         2.538543
