19
Iteration:  1251
 O        -3.606951         4.817461         1.593568
 C        -3.210830         3.590582         0.965798
 C        -2.760933         2.497051         1.871039
 C        -2.474932         1.178359         1.110951
 C        -1.345369         1.931850         0.276459
 C         0.177391         1.505329         0.651888
 C         0.483259         0.356142        -0.292236
 O        -0.150982        -0.695055        -0.483065
 C        -1.750793         3.234413         1.006337
 H        -3.104500         5.537066         1.230695
 H        -3.720328         3.282151         0.083613
 H        -2.751501         2.387782         2.998018
 H        -2.233459         0.314850         1.727255
 H        -3.403099         0.833873         0.462051
 H        -1.779968         1.962019        -0.799943
 H         0.938988         2.222065         0.817372
 H         0.147671         1.099210         1.716872
 H         1.415089         0.398729        -1.154364
 H        -1.139172         4.052960         1.288637
