19
Iteration:  3483
 O        -3.502069         4.789911         1.532112
 C        -3.149943         3.555764         0.967756
 C        -2.624064         2.548474         1.983885
 C        -2.409424         1.219096         1.312916
 C        -1.353478         1.905788         0.426742
 C         0.123268         1.377068         0.642960
 C         0.275166        -0.066211        -0.045390
 O        -0.372502        -0.277430        -1.062569
 C        -1.627203         3.313748         1.017055
 H        -3.028152         5.391944         0.988899
 H        -3.661413         3.165835         0.100175
 H        -2.782851         2.785695         3.068032
 H        -1.942053         0.445184         1.952789
 H        -3.159905         0.714909         0.746536
 H        -1.515666         1.925887        -0.696927
 H         0.781031         2.088959         0.111419
 H         0.428944         1.398703         1.775576
 H         0.819058        -0.861601         0.513582
 H        -1.106432         4.086447         1.456097
