19
Iteration:    18
 O        -3.417245         4.857104         1.714730
 C        -2.764408         3.910915         0.944726
 C        -3.221778         2.525012         0.956770
 C        -2.286492         1.929506        -0.080055
 C        -1.041607         2.155678         0.800329
 C        -0.298809         0.886028         1.205491
 C         0.242006         0.150325        -0.055243
 O        -0.007614        -0.932682        -0.568541
 C        -1.866363         2.980646         1.789936
 H        -4.270781         4.524542         1.999992
 H        -2.422033         4.365075        -0.006238
 H        -4.022832         2.019924         1.550685
 H        -2.520099         0.890310        -0.368713
 H        -2.305254         2.363394        -1.130759
 H        -0.285501         2.799071         0.290271
 H         0.721903         1.248926         1.485364
 H        -0.748234         0.229346         1.975298
 H         1.049225         0.849988        -0.528062
 H        -1.880565         3.030694         2.872904
