19
Iteration:  2770charge 0 multiplicity 1
 O        -3.877400         4.531444         0.902775
 C        -3.293445         3.228933         1.057325
 C        -2.351360         3.031265         2.146372
 C        -2.199381         1.584539         2.302574
 C        -1.558826         1.490691         0.829378
 C        -0.127720         0.961073         0.861166
 C         0.380515         0.848016        -0.610581
 O         0.281815        -0.216908        -1.211912
 C        -1.797579         2.971436         0.695912
 H        -4.156247         4.834237         0.016779
 H        -3.897024         2.413812         0.873829
 H        -2.170657         3.698655         2.887780
 H        -1.746577         1.247490         3.100678
 H        -3.192684         0.998136         2.279213
 H        -2.246998         0.923698         0.216466
 H         0.550542         1.716034         1.415192
 H         0.016063        -0.046388         1.123716
 H         0.884291         1.727983        -1.109482
 H        -1.466460         3.645662        -0.060442
