19
Iteration:  1297
 O        -3.424665         4.775778         1.727369
 C        -3.216422         3.600037         0.981001
 C        -2.712334         2.498105         1.864199
 C        -2.638818         1.221704         1.135616
 C        -1.486703         1.853292         0.129019
 C        -0.061088         1.550677         0.443276
 C         0.582535         0.289347        -0.094378
 O         0.024575        -0.696748        -0.494245
 C        -1.768930         3.271006         0.986973
 H        -3.539435         5.352417         0.942526
 H        -3.768744         3.537748         0.084848
 H        -2.897282         2.565091         2.896468
 H        -2.213692         0.343568         1.536381
 H        -3.594969         0.894686         0.590296
 H        -1.492480         2.013327        -0.935906
 H         0.516449         2.390434         0.254258
 H         0.004070         1.578683         1.567110
 H         1.703165         0.193551        -0.156742
 H        -1.028109         4.023623         1.366794
