19
Iteration:  3897
 O        -2.989593         5.044440         1.573839
 C        -2.660018         3.858245         0.875482
 C        -3.304459         2.687456         1.542342
 C        -3.134716         1.478927         0.707381
 C        -1.583629         1.719458         0.542068
 C        -0.460267         0.709543         0.960959
 C        -0.055859        -0.044116        -0.255750
 O         1.034321        -0.008325        -0.758353
 C        -1.744095         2.879976         1.547095
 H        -2.190705         5.534369         1.634663
 H        -2.599512         4.075262        -0.253716
 H        -4.036783         2.566925         2.335551
 H        -3.525275         0.456760         1.107597
 H        -3.712365         1.559644        -0.307629
 H        -1.242383         2.107302        -0.371050
 H         0.360873         1.135104         1.605091
 H        -0.882316        -0.140497         1.570518
 H        -0.713275        -0.809396        -0.709506
 H        -1.145729         3.068176         2.517111
