19
Iteration:  1774charge 0 multiplicity 1
 O        -3.234886         4.510827         0.415626
 C        -3.137816         3.150597         0.821479
 C        -2.215762         3.003009         2.100716
 C        -2.203778         1.596294         2.570184
 C        -1.837524         1.147496         1.085239
 C        -0.576137         0.371106         0.952608
 C         0.280103         0.651329        -0.302610
 O        -0.106839         1.220671        -1.300654
 C        -1.677023         2.618236         0.739163
 H        -2.993138         4.525816        -0.543596
 H        -4.117138         2.644910         0.569170
 H        -2.087937         3.875294         2.698965
 H        -1.342585         1.161442         3.179914
 H        -3.210139         1.225626         2.873110
 H        -2.691772         0.723828         0.373694
 H         0.046941         0.625417         1.806035
 H        -0.463122        -0.730760         0.952701
 H         1.419731         0.403144        -0.233168
 H        -1.009752         3.014873         0.050062
