19
Iteration:  2797
 O        -3.809109         4.609466         0.991920
 C        -3.344800         3.271658         0.990223
 C        -2.402508         3.017613         2.118454
 C        -2.215324         1.490274         2.234830
 C        -1.608292         1.445198         0.822198
 C        -0.056111         1.097761         0.874211
 C         0.207038         0.816710        -0.668161
 O         0.421682        -0.294162        -1.123641
 C        -1.848522         2.944727         0.700094
 H        -4.165509         5.056187         0.190219
 H        -4.042786         2.407579         0.704162
 H        -2.182007         3.908357         2.837710
 H        -1.385449         0.941311         2.949915
 H        -3.112832         0.925368         2.358800
 H        -2.184199         0.856922         0.083017
 H         0.495666         1.949430         1.053905
 H         0.419137         0.133423         1.359611
 H         0.358170         1.725711        -1.325583
 H        -1.108339         3.624299         0.221695
