19
Iteration:  3524
 O        -3.601151         4.788599         1.718525
 C        -3.065408         3.657413         0.997144
 C        -2.726358         2.523089         1.886014
 C        -2.411441         1.257212         1.064900
 C        -1.300245         2.104384         0.262174
 C         0.054360         1.433265         0.402986
 C         0.363287        -0.066088        -0.010657
 O        -0.337002        -0.632568        -0.859768
 C        -1.559935         3.349024         1.229849
 H        -3.618464         5.555205         1.097156
 H        -3.535154         3.483996         0.033862
 H        -3.035418         2.687174         2.926098
 H        -1.871289         0.473575         1.727159
 H        -3.270114         0.770128         0.652413
 H        -1.626433         2.315347        -0.690807
 H         0.799126         2.086017        -0.079685
 H         0.260945         1.461676         1.390256
 H         1.120914        -0.741224         0.591898
 H        -0.811466         3.887222         1.832128
