19
Iteration:  4154charge 0 multiplicity 1
 O        -3.370266         4.838262         2.046453
 C        -2.766719         4.031049         1.039565
 C        -3.094371         2.571012         0.951470
 C        -2.504918         1.661792        -0.085186
 C        -1.019650         2.068024         0.516364
 C        -0.209088         0.904659         1.174390
 C         0.329422        -0.038990         0.067287
 O        -0.292486        -0.635301        -0.745472
 C        -1.810215         2.959411         1.579091
 H        -2.776498         5.464933         2.434720
 H        -2.348362         4.667324         0.286856
 H        -3.977147         2.163638         1.526235
 H        -2.802136         0.675089         0.105575
 H        -2.611519         1.997667        -1.173708
 H        -0.349641         2.633607        -0.188717
 H         0.705627         1.326190         1.685948
 H        -0.586204         0.365402         2.062854
 H         1.486862        -0.017812         0.052224
 H        -1.578349         3.165735         2.692600
