19
Iteration:  4018charge 0 multiplicity 1
 O        -3.091803         5.002839         1.556268
 C        -2.614757         3.832208         0.945066
 C        -3.231142         2.624837         1.401325
 C        -2.860581         1.473092         0.463227
 C        -1.313955         1.799173         0.534607
 C        -0.557367         0.607478         1.115747
 C        -0.098779        -0.197265        -0.000370
 O         0.571368         0.266147        -0.851740
 C        -1.577651         2.868048         1.603388
 H        -2.544774         5.814930         1.448644
 H        -2.467650         4.038516        -0.157460
 H        -4.004806         2.592335         2.231282
 H        -3.065800         0.423451         0.777576
 H        -3.271155         1.442145        -0.538701
 H        -0.934118         2.151094        -0.471163
 H         0.184565         0.934245         1.837474
 H        -1.303388         0.039687         1.638367
 H        -0.457564        -1.218227        -0.085640
 H        -1.059687         2.998370         2.500623
