19
Iteration:  1492charge 0 multiplicity 1
 O        -3.677795         4.730391         1.314862
 C        -3.143313         3.493386         0.899730
 C        -2.752697         2.697936         2.047376
 C        -2.373159         1.273069         1.625529
 C        -1.417198         1.766147         0.539516
 C         0.095444         1.469895         0.565610
 C         0.480059         0.179075        -0.195728
 O        -0.220572        -0.426443        -0.960998
 C        -1.620266         3.186596         1.033582
 H        -3.384281         5.333100         0.593968
 H        -3.764946         3.090946         0.039476
 H        -3.010592         3.106859         3.040163
 H        -1.966883         0.817521         2.497333
 H        -3.065398         0.603173         1.041361
 H        -1.765299         1.721199        -0.575941
 H         0.728182         2.243379         0.009443
 H         0.502177         1.262689         1.574256
 H         1.470384        -0.346349         0.088149
 H        -0.944714         4.088847         1.045507
