19
Iteration:  4499charge 0 multiplicity 1
 O        -3.091871         5.082134         2.055430
 C        -2.270587         4.043463         1.319659
 C        -3.214677         3.100484         0.511327
 C        -2.452005         2.019276        -0.334856
 C        -1.342933         1.929360         0.722394
 C        -0.773733         0.545161         1.018585
 C        -0.202185        -0.171409        -0.211623
 O         0.861776        -0.726793        -0.265622
 C        -2.373128         2.560787         1.694246
 H        -2.717138         5.180538         2.936975
 H        -1.392832         4.499291         0.980378
 H        -4.262032         3.221722         0.692726
 H        -3.105762         1.141172        -0.238755
 H        -2.336280         2.234338        -1.370036
 H        -0.495499         2.607409         0.382292
 H         0.079670         0.750732         1.646612
 H        -1.431977        -0.165355         1.553634
 H        -0.691370         0.054127        -1.219225
 H        -2.711099         2.046140         2.595736
