19
Iteration:  4376
 O        -3.479772         4.643150         2.321310
 C        -2.619282         4.138094         1.209051
 C        -3.078027         2.838733         0.728395
 C        -2.296963         2.369395        -0.500928
 C        -1.028284         2.237207         0.361487
 C        -0.621142         0.853399         0.872316
 C         0.040822        -0.083245        -0.119497
 O         0.243191        -1.304991        -0.004719
 C        -1.849613         2.828297         1.564310
 H        -2.951462         5.099472         2.996745
 H        -2.244329         4.896163         0.557839
 H        -4.112816         2.571964         0.997605
 H        -2.663908         1.474957        -1.137532
 H        -2.141353         3.011203        -1.345782
 H         0.021755         2.654686         0.082940
 H         0.013765         0.954113         1.749230
 H        -1.557798         0.335756         1.276804
 H         0.504474         0.427611        -0.993608
 H        -1.978698         2.530094         2.618711
