19
Iteration:  1343
 O        -3.542035         4.787273         1.810141
 C        -3.302927         3.630110         0.958369
 C        -2.681640         2.518915         1.813688
 C        -2.492262         1.215509         1.099840
 C        -1.514348         2.014140         0.148074
 C         0.059838         1.557312         0.262808
 C         0.466340         0.132846         0.176587
 O         0.070367        -0.726270        -0.608985
 C        -1.785260         3.280053         0.938778
 H        -3.077225         5.557249         1.376247
 H        -4.092530         3.332798         0.276820
 H        -2.873157         2.759473         2.882789
 H        -1.971678         0.468066         1.780029
 H        -3.356388         0.732325         0.662148
 H        -1.715174         1.913780        -0.865104
 H         0.713228         2.042871        -0.385064
 H         0.389120         1.962305         1.202243
 H         1.137227        -0.262276         0.902208
 H        -0.941960         3.901519         1.387908
