19
Iteration:    73
 O        -3.561603         4.806164         1.554329
 C        -2.548972         3.911968         0.977981
 C        -3.166641         2.523077         0.970557
 C        -2.329073         1.620068         0.057674
 C        -1.033830         2.148469         0.801093
 C        -0.209158         0.918463         1.220980
 C         0.231930         0.304091        -0.086653
 O        -0.155112        -0.746094        -0.616189
 C        -1.879392         2.852702         1.886015
 H        -3.197502         5.693539         1.635841
 H        -1.999768         4.426093         0.167435
 H        -4.248452         2.512972         1.237005
 H        -2.470677         0.533490         0.246639
 H        -2.363494         1.915103        -1.083961
 H        -0.462598         2.872057         0.203889
 H         0.716643         1.191637         1.840447
 H        -0.762856         0.167586         1.835850
 H         0.868251         0.965174        -0.740519
 H        -1.733410         2.979929         2.934556
