19
Iteration:  4336charge 0 multiplicity 1
 O        -3.338115         4.508825         2.325636
 C        -2.679718         4.082742         1.184602
 C        -3.162981         2.781471         0.599548
 C        -2.203442         2.313817        -0.514171
 C        -0.977771         2.363519         0.446150
 C        -0.344987         1.063187         0.810624
 C         0.093542        -0.063921        -0.108836
 O        -0.081011        -1.298882         0.080135
 C        -2.022085         2.772749         1.600283
 H        -2.613481         4.679635         2.970589
 H        -2.218937         4.873771         0.515611
 H        -4.254690         2.546498         0.692183
 H        -2.503689         1.342158        -0.970433
 H        -2.096238         3.120751        -1.302393
 H        -0.441486         3.212698         0.142957
 H         0.597228         1.359794         1.379258
 H        -1.078157         0.619784         1.475043
 H         0.536978         0.262637        -1.076357
 H        -1.987838         2.404372         2.716010
