19
Iteration:  1499
 O        -3.635945         4.723646         1.279152
 C        -3.093054         3.484333         0.878451
 C        -2.749788         2.682495         2.032561
 C        -2.416853         1.243355         1.664070
 C        -1.396319         1.770800         0.547297
 C         0.093686         1.424521         0.557120
 C         0.490473         0.245098        -0.217142
 O        -0.241735        -0.416857        -0.957151
 C        -1.648902         3.195011         1.038323
 H        -3.517971         5.443890         0.652685
 H        -3.660193         2.972746         0.054605
 H        -2.929148         2.988468         3.022057
 H        -1.877407         0.687560         2.556717
 H        -3.343634         0.692453         1.370063
 H        -1.752878         1.682892        -0.521756
 H         0.528464         2.392499         0.237845
 H         0.395435         1.297404         1.584236
 H         1.493936        -0.076180         0.042506
 H        -0.989956         4.038734         1.038508
