19
Iteration:  2462
 O        -3.881727         4.350382         0.630292
 C        -3.424718         3.134150         1.044650
 C        -2.260164         3.136214         1.977802
 C        -1.816449         1.815001         2.521268
 C        -1.658507         1.267893         1.059642
 C        -0.252803         0.491953         1.014903
 C         0.361672         0.318532        -0.415514
 O         0.329711         1.119781        -1.315077
 C        -2.035422         2.726195         0.447491
 H        -4.305565         4.145710        -0.242955
 H        -4.327271         2.374207         1.147984
 H        -1.846685         3.988653         2.386328
 H        -0.865285         1.817869         2.929656
 H        -2.418398         1.295703         3.288038
 H        -2.475296         0.530281         0.653218
 H         0.474573         1.093074         1.406168
 H        -0.297555        -0.514606         1.469855
 H         1.049043        -0.544220        -0.385337
 H        -1.453378         3.238262        -0.332711
