19
Iteration:   404
 O        -3.449183         4.853464         1.625182
 C        -2.845972         3.852120         0.833152
 C        -3.125061         2.412681         1.232372
 C        -2.400813         1.369494         0.281980
 C        -1.037840         2.084011         0.558622
 C        -0.148378         1.026041         1.237881
 C         0.328475         0.023070         0.212625
 O        -0.233061        -0.229072        -0.814171
 C        -1.787506         2.977842         1.466930
 H        -2.844753         5.492329         2.082083
 H        -2.674215         4.116927        -0.261359
 H        -3.751576         2.025087         2.023776
 H        -2.358194         0.378450         0.766059
 H        -2.746760         1.298891        -0.766516
 H        -0.619351         2.725542        -0.301688
 H         0.813770         1.419744         1.726236
 H        -0.664721         0.461464         1.984992
 H         1.043597        -0.644031         0.723017
 H        -1.422202         3.383676         2.367205
