19
Iteration:  3425charge 0 multiplicity 1
 O        -3.469197         4.886140         1.325543
 C        -3.093648         3.509529         0.918462
 C        -2.689842         2.734942         2.146258
 C        -2.584689         1.258793         1.689125
 C        -1.361746         1.688799         0.580190
 C         0.052413         1.149554         0.712400
 C         0.382889         0.102650        -0.288246
 O        -0.249553        -0.138176        -1.274491
 C        -1.626150         3.083283         1.110142
 H        -3.324860         5.507491         0.535120
 H        -3.794205         3.187668         0.171853
 H        -2.962955         3.255524         3.047055
 H        -2.238202         0.414454         2.362518
 H        -3.343471         0.883028         1.034149
 H        -1.723633         1.650094        -0.380275
 H         0.789638         1.971946         0.499697
 H         0.240520         0.869463         1.689144
 H         1.369023        -0.377827        -0.131952
 H        -0.804557         3.928971         1.130053
