19
Iteration:   260
 O        -3.394999         4.905760         1.850141
 C        -2.819116         3.898887         0.911127
 C        -3.111165         2.410218         1.096333
 C        -2.562873         1.586876        -0.125450
 C        -1.167379         2.045912         0.408623
 C        -0.147161         1.058100         1.230046
 C         0.492934         0.107220         0.235517
 O        -0.197894        -0.574203        -0.524741
 C        -1.704699         2.966633         1.471771
 H        -4.107502         4.425367         2.317804
 H        -2.812523         4.391087        -0.113880
 H        -3.641331         2.019574         1.966996
 H        -2.726596         0.556708         0.039760
 H        -2.940552         1.974353        -1.095772
 H        -0.450177         2.535438        -0.323309
 H         0.511716         1.763387         1.895756
 H        -0.786807         0.409250         1.903276
 H         1.575630        -0.007574         0.237333
 H        -1.236384         3.323285         2.447925
