19
Iteration:  4298charge 0 multiplicity 1
 O        -3.603474         4.575316         2.183684
 C        -2.612491         4.078887         1.302060
 C        -3.005282         2.750945         0.671006
 C        -2.178174         2.152895        -0.465353
 C        -1.004511         2.261095         0.419631
 C        -0.106793         1.093018         0.878375
 C         0.016117         0.045329        -0.151245
 O        -0.319392        -1.151671         0.001890
 C        -1.820506         2.717481         1.631791
 H        -3.083329         4.906161         2.971362
 H        -2.009946         4.826939         0.817088
 H        -4.008329         2.390690         0.756693
 H        -2.473055         1.107904        -0.910888
 H        -2.049898         2.923413        -1.231334
 H        -0.132692         2.908872        -0.068505
 H         0.814746         1.245481         1.439804
 H        -0.652466         0.563326         1.730319
 H         0.307388         0.361911        -1.228517
 H        -1.757152         2.344247         2.567415
