19
Iteration:  4411
 O        -3.482861         4.692343         2.133470
 C        -2.481772         4.170419         1.157478
 C        -3.065626         2.859548         0.823913
 C        -2.350263         2.277867        -0.378500
 C        -1.026562         2.102003         0.583297
 C        -0.875467         0.636397         0.812144
 C        -0.003853        -0.007351        -0.218951
 O         0.420214        -1.155994        -0.076287
 C        -1.811975         2.911909         1.682284
 H        -2.985354         5.384432         2.598101
 H        -2.094912         4.834651         0.398932
 H        -4.097780         2.680739         1.134075
 H        -2.652312         1.249670        -0.574684
 H        -2.282918         2.944102        -1.232334
 H        -0.051896         2.583052         0.184298
 H        -0.454994         0.376520         1.802611
 H        -1.844479         0.101456         0.688853
 H         0.387368         0.630682        -1.024594
 H        -1.851338         2.778437         2.816085
