19
Iteration:  4062
 O        -3.150294         5.011067         1.790632
 C        -2.794088         3.950759         0.965269
 C        -3.233342         2.705099         1.325306
 C        -2.794546         1.610517         0.202285
 C        -1.301730         1.851103         0.582681
 C        -0.419889         0.623284         1.128833
 C         0.226719        -0.328809         0.172771
 O         0.405953        -0.047863        -0.997709
 C        -1.763981         2.962894         1.522093
 H        -2.346336         5.598144         1.850979
 H        -2.750452         4.377394        -0.059072
 H        -4.108801         2.622743         1.977329
 H        -3.119489         0.631847         0.598893
 H        -3.128652         1.641745        -0.773109
 H        -0.658588         2.318152        -0.273988
 H         0.394614         0.965872         1.728727
 H        -0.921483        -0.066493         1.775028
 H         0.354917        -1.399508         0.556342
 H        -1.151916         3.003985         2.348037
