19
Iteration:  4085charge 0 multiplicity 1
 O        -3.141967         5.039578         1.870792
 C        -2.670590         3.953427         1.011816
 C        -3.294609         2.558354         1.206455
 C        -2.752781         1.546562         0.157962
 C        -1.236772         1.863496         0.469000
 C        -0.482241         0.842007         1.135812
 C         0.269520        -0.196868         0.237308
 O         0.276100        -0.254910        -1.032176
 C        -1.827031         2.957322         1.600052
 H        -2.348428         5.554414         2.107474
 H        -2.401921         4.378460         0.040583
 H        -3.966599         2.300310         1.976962
 H        -3.077320         0.530008         0.103128
 H        -3.029255         2.002952        -0.769944
 H        -0.688114         2.229994        -0.446873
 H         0.406258         1.143123         1.655990
 H        -1.112426         0.417436         1.906429
 H         1.036982        -0.812307         0.825489
 H        -1.355337         3.002529         2.567840
