19
Iteration:  4152charge 0 multiplicity 1
 O        -3.366123         4.843310         2.048872
 C        -2.758476         4.036262         1.047912
 C        -3.104625         2.567491         0.947686
 C        -2.515342         1.658278        -0.091164
 C        -1.031760         2.042473         0.524890
 C        -0.217252         0.904807         1.165746
 C         0.327996        -0.031629         0.075245
 O        -0.274703        -0.625970        -0.749324
 C        -1.803519         2.948874         1.582050
 H        -2.719091         5.462894         2.411821
 H        -2.346895         4.670833         0.210926
 H        -3.942111         2.138026         1.494578
 H        -2.859721         0.714234         0.131247
 H        -2.665757         1.992063        -1.128828
 H        -0.278285         2.617110        -0.218754
 H         0.619028         1.443524         1.648133
 H        -0.555655         0.358789         2.034365
 H         1.448441        -0.051442         0.108894
 H        -1.558396         3.229759         2.703146
