19
Iteration:  3320
 O        -3.287611         4.877239         1.119927
 C        -3.070778         3.492820         0.971856
 C        -2.580856         2.836955         2.121936
 C        -2.648951         1.278943         1.982767
 C        -1.578798         1.380988         0.746896
 C        -0.134103         0.825744         0.913886
 C         0.476822         0.514378        -0.400924
 O        -0.216326         0.111327        -1.369731
 C        -1.629641         2.964474         0.812252
 H        -3.083106         5.340999         0.245578
 H        -3.952452         3.090331         0.384683
 H        -2.417990         3.352062         3.022295
 H        -2.186645         0.738225         2.849500
 H        -3.697701         0.806217         1.642096
 H        -1.934165         1.047954        -0.305402
 H         0.491801         1.470550         1.517887
 H        -0.220628        -0.059311         1.533393
 H         1.577033         0.781763        -0.408639
 H        -0.852885         3.682277         0.911039
