19
Iteration:  2620
 O        -3.536427         4.361259         0.468445
 C        -3.260690         3.051917         0.877555
 C        -2.217414         3.060169         1.994071
 C        -2.146736         1.569360         2.542845
 C        -1.531130         1.129899         1.138565
 C         0.004654         0.888496         1.131504
 C         0.353050         0.801810        -0.392980
 O        -0.444897         0.859237        -1.316998
 C        -1.845495         2.594765         0.580493
 H        -3.539595         4.323226        -0.510496
 H        -4.192929         2.282027         0.971119
 H        -1.938899         3.924493         2.496921
 H        -1.340836         1.529861         3.439794
 H        -3.029885         1.090429         2.870586
 H        -2.218840         0.312117         0.646801
 H         0.657671         1.624917         1.507678
 H         0.445241        -0.007665         1.611127
 H         1.447749         0.670919        -0.689919
 H        -1.215349         3.177253        -0.066927
