19
Iteration:  3311charge 0 multiplicity 1
 O        -3.219806         4.860297         1.094002
 C        -3.132198         3.505814         0.910238
 C        -2.471851         2.814765         2.144479
 C        -2.594227         1.278696         1.989285
 C        -1.669390         1.390232         0.720754
 C        -0.184128         0.809395         0.939464
 C         0.447870         0.529333        -0.387145
 O        -0.191974         0.201219        -1.329526
 C        -1.644316         2.915594         0.844607
 H        -3.244616         5.193399         0.135030
 H        -3.980769         2.871629         0.420802
 H        -2.393702         3.504998         2.952085
 H        -2.259512         0.593309         2.716690
 H        -3.674202         0.771262         1.709669
 H        -2.090554         0.958504        -0.223994
 H         0.324834         1.575822         1.534070
 H        -0.163202        -0.062275         1.489253
 H         1.546278         0.754506        -0.634304
 H        -0.827762         3.533378         0.911407
