19
Iteration:   839charge 0 multiplicity 1
 O        -3.367784         4.865680         1.917069
 C        -3.050418         3.841259         0.942876
 C        -3.006065         2.435316         1.555680
 C        -2.783130         1.284259         0.584216
 C        -1.390903         1.967188         0.101811
 C        -0.234716         1.332300         0.629033
 C        -0.078616         0.108390        -0.094615
 O         0.869082        -0.603829        -0.214153
 C        -1.730258         3.173776         1.131557
 H        -2.653109         5.531355         1.954653
 H        -3.562915         3.968195         0.024109
 H        -3.284403         2.242975         2.540856
 H        -2.815806         0.329128         1.116453
 H        -3.667815         1.270509        -0.202244
 H        -1.363105         2.129835        -1.030916
 H         0.702949         1.820518         0.525376
 H        -0.417238         0.979166         1.621087
 H        -1.049529        -0.219126        -0.565038
 H        -0.921574         3.626865         1.796365
