19
Iteration:  4420
 O        -3.417574         4.809765         2.115146
 C        -2.552314         4.240670         1.216562
 C        -3.074202         2.771923         0.807753
 C        -2.237209         2.230661        -0.315716
 C        -1.093613         2.039451         0.589567
 C        -0.921036         0.601075         0.852500
 C         0.050803         0.008071        -0.238485
 O         0.462384        -1.110332        -0.116987
 C        -1.866983         2.865856         1.636276
 H        -2.954063         5.489446         2.632347
 H        -2.079100         4.840477         0.485578
 H        -4.106298         2.687154         1.184759
 H        -2.700048         1.297567        -0.825069
 H        -2.299206         2.750864        -1.230087
 H        -0.186120         2.593434         0.119830
 H        -0.652028         0.317835         1.846924
 H        -1.945995         0.125007         0.932000
 H         0.153784         0.626422        -1.170165
 H        -1.923459         2.547666         2.717911
