19
Iteration:  4436charge 0 multiplicity 1
 O        -3.350391         4.992527         2.121181
 C        -2.569840         4.077577         1.226033
 C        -3.193766         2.831652         0.739659
 C        -2.327946         2.208051        -0.435793
 C        -1.093067         2.056476         0.649146
 C        -0.887766         0.552410         0.916388
 C        -0.067423        -0.021258        -0.185487
 O         0.590543        -1.066287        -0.199589
 C        -1.919629         2.804580         1.729589
 H        -2.617612         5.376449         2.596886
 H        -2.003182         4.625039         0.402200
 H        -4.167306         2.414325         0.949627
 H        -2.602640         1.269896        -0.808024
 H        -2.047645         2.925966        -1.289914
 H        -0.107536         2.498125         0.404037
 H        -0.358933         0.290184         1.900716
 H        -1.767714        -0.105843         0.890758
 H         0.076297         0.690096        -1.019185
 H        -1.849022         2.649234         2.797007
