19
Iteration:   144
 O        -3.205287         4.829842         1.887696
 C        -2.765955         3.901966         0.944000
 C        -3.281502         2.500029         0.941701
 C        -2.549923         1.592861        -0.037339
 C        -1.118343         2.103342         0.504617
 C        -0.255967         1.088851         1.110311
 C         0.429682         0.180328         0.181028
 O        -0.069842        -0.671188        -0.507896
 C        -1.864929         2.863139         1.564427
 H        -4.051982         5.133711         1.532499
 H        -2.487519         4.388793        -0.002824
 H        -4.153949         2.303494         1.611993
 H        -2.606651         0.566531         0.344801
 H        -2.881212         1.615861        -1.069182
 H        -0.598403         2.918807        -0.074642
 H         0.508265         1.598437         1.602997
 H        -0.774008         0.525259         1.865916
 H         1.523356         0.331788         0.186820
 H        -1.519181         2.885845         2.643054
