19
Iteration:  4369charge 0 multiplicity 1
 O        -3.441690         4.644114         2.336232
 C        -2.706510         4.209817         1.264767
 C        -3.079643         2.820345         0.673628
 C        -2.280779         2.346828        -0.568367
 C        -0.965712         2.236690         0.378051
 C        -0.581701         0.815582         0.854441
 C         0.065357        -0.081240        -0.100026
 O         0.182704        -1.277156         0.027048
 C        -1.896990         2.795103         1.525289
 H        -2.843648         5.054815         3.025395
 H        -2.279338         4.955576         0.555947
 H        -4.004945         2.357907         1.042828
 H        -2.807508         1.474863        -0.977367
 H        -2.179255         3.179045        -1.343689
 H        -0.128690         2.898588         0.130890
 H         0.203316         0.915919         1.687376
 H        -1.362049         0.317931         1.423741
 H         0.449093         0.450365        -1.042444
 H        -1.879293         2.355677         2.600079
