19
Iteration:   904
 O        -3.698066         4.856097         1.925421
 C        -3.029553         3.896706         1.116105
 C        -3.002495         2.458287         1.611274
 C        -2.641487         1.407163         0.510286
 C        -1.375248         2.241282         0.149391
 C        -0.119148         1.255782         0.234490
 C        -0.100637        -0.166605        -0.215416
 O         0.898763        -0.869390        -0.017595
 C        -1.669148         3.334471         1.307634
 H        -3.367459         5.751850         1.653431
 H        -3.322346         3.861552         0.054083
 H        -3.312805         2.174324         2.569440
 H        -2.497218         0.414567         0.860618
 H        -3.416564         1.358004        -0.344093
 H        -1.354890         2.689387        -0.838323
 H         0.693023         1.810267        -0.341418
 H         0.339670         1.376544         1.258453
 H        -1.020415        -0.412632        -0.880442
 H        -1.010424         3.631713         2.166352
