19
Iteration:  4363
 O        -3.417723         4.649547         2.358903
 C        -2.738415         4.194001         1.293873
 C        -3.132514         2.816660         0.620201
 C        -2.262874         2.360566        -0.618172
 C        -0.956395         2.230365         0.426968
 C        -0.528663         0.808217         0.870815
 C         0.094724        -0.078210        -0.122919
 O         0.123929        -1.262724         0.060948
 C        -1.905789         2.802084         1.508179
 H        -2.720683         4.967844         2.967870
 H        -2.309586         4.973138         0.644767
 H        -3.976659         2.203197         0.919050
 H        -2.689130         1.382260        -0.873683
 H        -2.242659         3.185766        -1.302334
 H        -0.249729         3.030554         0.090138
 H         0.329184         0.962144         1.505892
 H        -1.301756         0.256675         1.448810
 H         0.430890         0.413728        -1.042056
 H        -1.740957         2.382572         2.428268
