19
Iteration:  2900
 O        -3.833927         4.707968         1.110084
 C        -3.330843         3.372901         1.138886
 C        -2.389690         3.000877         2.197473
 C        -2.265400         1.532805         2.200779
 C        -1.708076         1.493042         0.726261
 C        -0.256944         0.944602         0.643347
 C         0.003982         0.448448        -0.786790
 O         0.999084        -0.214647        -0.989873
 C        -1.900849         3.108674         0.669986
 H        -4.072533         4.958103         0.234247
 H        -4.041942         2.480007         1.016294
 H        -2.133517         3.777954         2.923144
 H        -1.467819         1.267251         2.831517
 H        -3.205442         0.974064         2.331149
 H        -2.340987         1.081789        -0.118323
 H         0.615089         1.572290         0.859108
 H        -0.100905         0.187592         1.262110
 H        -0.732001         0.720041        -1.592272
 H        -1.296444         3.859547         0.046677
