19
Iteration:  2329charge 0 multiplicity 1
 O        -3.649958         4.362193         0.483156
 C        -3.233727         2.972800         0.812180
 C        -2.310017         3.023214         1.984024
 C        -2.076426         1.648611         2.627221
 C        -1.539329         1.232093         1.111271
 C        -0.061221         0.849140         1.045683
 C         0.320942         0.602452        -0.380169
 O        -0.309203         0.948139        -1.351617
 C        -1.718450         2.674039         0.693576
 H        -3.763657         4.293002        -0.489068
 H        -4.065337         2.181646         0.621922
 H        -2.428005         4.024036         2.558069
 H        -1.267348         1.581870         3.241387
 H        -2.893201         1.032721         3.035587
 H        -2.177072         0.346968         0.767121
 H         0.593105         1.644127         1.502862
 H         0.254642        -0.109230         1.637169
 H         1.345344         0.347873        -0.502126
 H        -1.180205         3.279468        -0.039211
