19
Iteration:  2313charge 0 multiplicity 1
 O        -3.675930         4.262622         0.431269
 C        -3.169775         3.062157         0.759211
 C        -2.427829         3.078494         2.161988
 C        -2.005338         1.623134         2.576151
 C        -1.551413         1.240977         1.188972
 C        -0.138017         0.758560         1.014639
 C         0.390113         0.752238        -0.414443
 O        -0.320588         0.824666        -1.398889
 C        -1.738475         2.734123         0.745844
 H        -3.644850         4.425465        -0.561334
 H        -3.783400         2.203234         0.590408
 H        -2.187135         3.943076         2.673202
 H        -1.068412         1.785727         3.286548
 H        -2.865369         1.089834         3.011748
 H        -2.253267         0.771326         0.504613
 H         0.527886         1.461656         1.489197
 H        -0.011581        -0.164182         1.484123
 H         1.473418         0.391095        -0.526869
 H        -0.907848         3.308461         0.304786
