19
Iteration:  3738
 O        -3.348779         4.827753         2.024116
 C        -2.929635         3.914899         1.037542
 C        -3.002473         2.473525         1.569645
 C        -2.807590         1.425960         0.392639
 C        -1.412690         2.179003         0.190562
 C        -0.055882         1.410200         0.399427
 C        -0.215507        -0.007209        -0.194449
 O         0.662248        -0.907691        -0.133333
 C        -1.668085         3.104371         1.293751
 H        -2.848254         5.623675         1.975280
 H        -3.351432         4.092215         0.033157
 H        -3.267587         2.222733         2.644271
 H        -2.692120         0.398415         0.759606
 H        -3.606019         1.353699        -0.390194
 H        -1.387502         2.579659        -0.751421
 H         0.733689         1.920008        -0.115092
 H         0.264719         1.238387         1.402176
 H        -1.124897        -0.066639        -0.866375
 H        -0.943295         3.473534         2.030934
