19
Iteration:  1020charge 0 multiplicity 1
 O        -3.539305         4.694718         1.854116
 C        -3.070124         3.680059         1.009198
 C        -2.883769         2.446350         1.774100
 C        -2.684531         1.372964         0.793052
 C        -1.429005         2.000235         0.097380
 C        -0.046893         1.501378         0.443757
 C         0.376652         0.320001        -0.347915
 O         0.205015        -0.881494        -0.026533
 C        -1.653772         3.265838         0.982996
 H        -3.154528         5.552693         1.622588
 H        -3.385918         3.846686         0.008147
 H        -2.989974         2.403539         2.797140
 H        -2.523430         0.316098         1.235263
 H        -3.471814         1.217829         0.016007
 H        -1.595984         2.334800        -0.997969
 H         0.620160         2.348111         0.359744
 H         0.000005         1.148371         1.494654
 H         1.097741         0.514392        -1.166285
 H        -0.883095         3.823374         1.600168
