19
Iteration:  2974
 O        -3.658360         4.808378         1.028465
 C        -3.386336         3.450680         1.110141
 C        -2.348740         3.060560         2.170651
 C        -2.271846         1.541407         2.439054
 C        -1.843084         1.322657         0.816414
 C        -0.476117         0.690503         0.565149
 C         0.036324         0.313213        -0.821308
 O         1.221031         0.203781        -1.080356
 C        -2.006282         2.955547         0.635851
 H        -3.559628         5.113133         0.082833
 H        -4.277819         2.818960         1.069708
 H        -2.046808         3.752745         2.897195
 H        -1.265698         1.317056         3.064794
 H        -3.116134         1.010889         2.868773
 H        -2.726275         0.975180         0.274007
 H         0.233561         1.200315         1.145479
 H        -0.608548        -0.311084         1.177543
 H        -0.776518        -0.170163        -1.465210
 H        -1.600996         3.689710        -0.091170
