19
Iteration:  3757charge 0 multiplicity 1
 O        -3.244746         4.908605         2.057033
 C        -3.014412         3.866096         1.074287
 C        -3.167697         2.468924         1.544880
 C        -2.807654         1.479731         0.519601
 C        -1.405606         2.093107         0.139006
 C        -0.150331         1.316200         0.412257
 C        -0.128351        -0.022660        -0.212135
 O         0.794637        -0.886718        -0.207790
 C        -1.711809         3.161767         1.278140
 H        -2.531103         5.467294         1.781152
 H        -3.152742         4.179848         0.071097
 H        -3.962066         2.310573         2.261831
 H        -2.822597         0.515199         0.843481
 H        -3.378117         1.483621        -0.405627
 H        -1.379554         2.560773        -0.964415
 H         0.838150         1.775556         0.043618
 H         0.004152         1.204695         1.465599
 H        -1.102437        -0.308333        -0.566737
 H        -0.985868         3.669607         2.054315
