19
Iteration:  2168
 O        -3.641261         4.663905         0.844318
 C        -3.394419         3.253381         1.062140
 C        -2.325703         2.990455         2.127235
 C        -2.211010         1.449595         2.338620
 C        -1.653815         1.300491         0.866055
 C        -0.122775         1.178871         0.845044
 C         0.405430         0.902979        -0.596216
 O         0.318194        -0.168388        -1.190310
 C        -2.036884         2.768947         0.642837
 H        -3.716595         4.822612        -0.098283
 H        -4.320324         2.720408         1.077684
 H        -1.956151         3.704780         2.950561
 H        -1.280130         1.141108         3.060320
 H        -3.145285         0.929133         2.505936
 H        -2.122634         0.420240         0.330712
 H         0.303120         2.106437         1.255825
 H         0.094850         0.352964         1.391668
 H         0.836429         1.905889        -1.027718
 H        -1.781075         3.415010        -0.160508
