19
Iteration:  2514
 O        -3.983143         4.186207         0.581579
 C        -3.169821         3.102184         0.902825
 C        -2.215625         3.223046         2.025018
 C        -1.926722         1.839490         2.563160
 C        -1.607698         1.288585         1.152993
 C        -0.300804         0.528466         1.010792
 C         0.287003         0.350068        -0.467038
 O         0.173217         1.174623        -1.354100
 C        -1.793298         2.719360         0.583137
 H        -4.038113         4.162567        -0.390634
 H        -3.846886         2.333765         1.046003
 H        -2.026895         4.148719         2.426424
 H        -1.170142         1.646018         3.281761
 H        -2.890075         1.293728         3.018002
 H        -2.404260         0.698327         0.739525
 H         0.659687         0.973894         1.577365
 H        -0.477030        -0.518582         1.232663
 H         0.697263        -0.749564        -0.520888
 H        -1.158401         3.249966        -0.134911
