19
Iteration:  1804charge 0 multiplicity 1
 O        -3.252904         4.490936         0.309992
 C        -3.064479         3.137605         0.803161
 C        -2.205493         3.053318         2.051672
 C        -2.232693         1.604594         2.583221
 C        -1.864525         1.091550         1.157680
 C        -0.512222         0.245401         1.016514
 C         0.217747         0.651006        -0.366357
 O        -0.156344         1.447316        -1.226562
 C        -1.638407         2.528840         0.743566
 H        -2.831653         4.667884        -0.547232
 H        -3.959818         2.484919         0.641314
 H        -1.919575         3.908264         2.648962
 H        -1.391393         1.234877         3.331719
 H        -3.156984         1.318461         3.115452
 H        -2.604555         0.654645         0.553054
 H         0.070839         0.401866         1.948478
 H        -0.633812        -0.832693         0.786613
 H         1.126690         0.118598        -0.658775
 H        -0.885513         2.920964         0.137752
