19
Iteration:  3652charge 0 multiplicity 1
 O        -3.427005         4.682902         2.050494
 C        -3.049065         3.781906         1.069520
 C        -2.795147         2.386745         1.645943
 C        -2.590833         1.309702         0.554999
 C        -1.268696         2.183025         0.089979
 C         0.041490         1.495258         0.409704
 C         0.171642         0.177101        -0.388971
 O        -0.105068        -0.898681         0.047647
 C        -1.645128         3.310578         1.099133
 H        -3.263624         5.583432         1.716806
 H        -3.525785         3.902976         0.049433
 H        -2.695750         2.158226         2.713460
 H        -2.370402         0.189906         0.741626
 H        -3.467854         1.461762        -0.138218
 H        -1.257277         2.451742        -1.075531
 H         0.848671         2.223848         0.201203
 H         0.206883         1.102263         1.517634
 H         0.283370         0.250054        -1.505892
 H        -0.952593         3.956992         1.698550
