19
Iteration:  4740
 O        -2.967881         4.926660         2.026565
 C        -2.190187         3.980512         1.291507
 C        -3.136517         3.104449         0.425125
 C        -2.205356         2.172074        -0.505782
 C        -1.328504         1.800034         0.801892
 C        -1.170460         0.214056         1.106666
 C         0.083298        -0.262314         0.438592
 O         0.434867        -0.109264        -0.745984
 C        -2.389584         2.546232         1.719097
 H        -2.522755         4.995672         2.931233
 H        -1.176517         4.421831         0.905211
 H        -4.232184         3.195830         0.436558
 H        -2.573146         1.242712        -1.050522
 H        -1.537805         2.765927        -1.210323
 H        -0.376052         2.199797         0.835004
 H        -1.177240        -0.087168         2.133600
 H        -2.088502        -0.212921         0.630367
 H         0.767612        -0.923258         1.081867
 H        -2.818157         2.262668         2.708895
