19
Iteration:  2507charge 0 multiplicity 1
 O        -3.981582         4.195591         0.619552
 C        -3.169660         3.051442         0.921881
 C        -2.159039         3.221232         2.001490
 C        -1.942547         1.827803         2.558378
 C        -1.592920         1.338945         1.087806
 C        -0.349876         0.493079         1.052331
 C         0.265366         0.337601        -0.449341
 O         0.216222         1.182390        -1.361505
 C        -1.824977         2.733587         0.523664
 H        -4.212747         4.226512        -0.362060
 H        -3.808513         2.033581         0.937987
 H        -2.002566         4.232684         2.449451
 H        -1.145905         1.832132         3.334169
 H        -2.777412         1.403509         3.120021
 H        -2.353854         0.532373         0.709762
 H         0.474815         0.972545         1.478316
 H        -0.613726        -0.513905         1.497421
 H         0.810961        -0.596593        -0.533587
 H        -1.177005         3.409862         0.048470
