19
Iteration:  3037charge 0 multiplicity 1
 O        -3.315912         4.725672         0.788627
 C        -3.170510         3.352430         1.004064
 C        -2.232259         2.989894         2.095860
 C        -2.360487         1.477873         2.448655
 C        -1.932789         1.142764         1.019718
 C        -0.550582         0.656070         0.842962
 C        -0.169057         0.552092        -0.652798
 O         0.916221         0.735163        -1.173817
 C        -1.920953         2.614931         0.587449
 H        -3.850852         5.036305        -0.002450
 H        -4.099672         2.813071         1.079028
 H        -1.840080         3.792143         2.619934
 H        -1.664424         1.168083         3.274452
 H        -3.424709         1.140499         2.533028
 H        -2.531723         0.493933         0.354945
 H         0.091950         1.404939         1.425962
 H        -0.343928        -0.390232         1.199306
 H        -1.015608         0.221850        -1.320125
 H        -1.180005         3.130288         0.027038
