19
Iteration:  1887
 O        -3.429401         4.624902         0.634827
 C        -3.154590         3.273884         0.774080
 C        -2.255179         3.009279         2.078501
 C        -2.335421         1.540211         2.532425
 C        -1.770215         1.193424         1.082237
 C        -0.355468         0.595689         1.030886
 C         0.155504         0.234133        -0.471897
 O         0.223497         1.084669        -1.336089
 C        -1.763837         2.696296         0.682778
 H        -3.147871         5.049666        -0.186843
 H        -3.830796         2.520033         0.458321
 H        -2.247540         3.844784         2.768895
 H        -1.635912         1.211270         3.217994
 H        -3.374266         1.138983         2.661110
 H        -2.461135         0.501785         0.404141
 H         0.213426         1.327706         1.503841
 H        -0.209309        -0.319080         1.548554
 H         0.498292        -0.802656        -0.629556
 H        -1.083822         3.287353         0.135059
