19
Iteration:  3009
 O        -3.407936         4.756958         0.868139
 C        -3.328277         3.355435         1.133557
 C        -2.279796         2.979091         2.093837
 C        -2.266858         1.506290         2.364832
 C        -1.899614         1.250209         0.868091
 C        -0.517854         0.691736         0.739664
 C        -0.111433         0.452533        -0.675659
 O         1.021469         0.491739        -1.086009
 C        -1.989880         2.789480         0.649017
 H        -3.525745         5.034995        -0.075358
 H        -4.293472         2.786415         1.070541
 H        -1.900052         3.835064         2.773435
 H        -1.487066         1.215576         3.138136
 H        -3.142862         0.993761         2.739761
 H        -2.545052         0.741662         0.137775
 H         0.110547         1.433594         1.174296
 H        -0.189114        -0.353258         1.188174
 H        -0.912702         0.140055        -1.427085
 H        -1.503331         3.505736        -0.128107
