19
Iteration:  4198charge 0 multiplicity 1
 O        -3.556254         4.650590         1.869438
 C        -2.622206         3.937277         1.057354
 C        -2.963874         2.452319         1.060512
 C        -2.239092         1.857633        -0.192410
 C        -0.937318         2.288604         0.616942
 C        -0.173272         0.945883         1.068683
 C         0.158052         0.133200        -0.085848
 O        -0.543815        -0.801028        -0.522311
 C        -1.713403         2.962992         1.763190
 H        -2.984255         5.314919         2.243948
 H        -2.236372         4.455379         0.170672
 H        -3.973889         2.168772         1.474224
 H        -2.313986         0.793895        -0.335361
 H        -2.537017         2.484709        -1.075283
 H        -0.229873         2.948830        -0.014588
 H         0.717570         1.179654         1.694827
 H        -0.887127         0.491098         1.788071
 H         1.092589         0.409423        -0.588706
 H        -1.507389         2.788643         2.852833
