19
Iteration:  1497charge 0 multiplicity 1
 O        -3.650896         4.724457         1.290808
 C        -3.106332         3.483388         0.886166
 C        -2.756282         2.689831         2.033072
 C        -2.402697         1.252196         1.654273
 C        -1.411147         1.764223         0.537467
 C         0.098342         1.443331         0.557283
 C         0.486668         0.227813        -0.212300
 O        -0.234367        -0.420764        -0.957512
 C        -1.631729         3.189674         1.034852
 H        -3.473222         5.405915         0.636276
 H        -3.673325         3.042748         0.098863
 H        -2.956910         3.034851         3.042931
 H        -1.918096         0.750622         2.553026
 H        -3.232159         0.685634         1.244163
 H        -1.711998         1.734655        -0.456257
 H         0.566504         2.331087         0.157971
 H         0.424751         1.260837         1.605165
 H         1.477864        -0.180269         0.067513
 H        -1.007560         4.045801         1.026084
