19
Iteration:  2209
 O        -3.632270         4.536182         0.713990
 C        -3.288680         3.116639         0.887858
 C        -2.409762         2.962320         2.126805
 C        -2.154558         1.532784         2.407503
 C        -1.558209         1.307866         1.002152
 C        -0.047353         0.980552         0.943508
 C         0.275178         0.995407        -0.515108
 O         0.018439         0.098494        -1.277335
 C        -1.814344         2.831186         0.691064
 H        -3.941313         4.744907        -0.208788
 H        -4.041981         2.381368         0.781386
 H        -2.476094         3.851727         2.793336
 H        -1.421161         1.545257         3.284222
 H        -2.958317         0.807463         2.793890
 H        -2.055148         0.722931         0.296466
 H         0.641683         1.573195         1.591219
 H         0.211681        -0.082377         1.295243
 H         0.811700         1.830203        -0.910979
 H        -1.312163         3.340675        -0.054814
