19
Iteration:   458
 O        -3.334127         4.768341         1.739931
 C        -2.848585         3.795503         0.863061
 C        -3.152070         2.490330         1.337007
 C        -2.692168         1.429215         0.319810
 C        -1.211074         1.963614         0.414653
 C        -0.228657         1.145616         1.171390
 C         0.175887        -0.102591         0.316749
 O         0.268049        -0.216081        -0.892029
 C        -1.660960         3.052480         1.435194
 H        -3.364034         5.626425         1.298173
 H        -2.815165         4.043001        -0.258225
 H        -3.989141         2.489724         2.003854
 H        -2.787467         0.410404         0.661437
 H        -3.180618         1.425629        -0.643970
 H        -0.786143         2.445018        -0.527183
 H         0.675808         1.663393         1.478353
 H        -0.735683         0.827417         2.023976
 H         0.388804        -0.973007         1.021543
 H        -1.255388         3.500566         2.291515
