19
Iteration:  1062charge 0 multiplicity 1
 O        -3.580432         4.803904         1.776377
 C        -3.196587         3.597261         1.060703
 C        -2.823671         2.476052         1.790749
 C        -2.455995         1.292372         0.806061
 C        -1.339807         2.099785         0.200737
 C         0.014604         1.571641         0.504800
 C         0.451480         0.234636        -0.294252
 O        -0.019192        -0.915788        -0.233648
 C        -1.691653         3.310220         1.043943
 H        -3.675877         5.404550         0.990879
 H        -3.839734         3.371281         0.223205
 H        -3.006701         2.372761         2.790516
 H        -2.082838         0.267060         1.281994
 H        -3.396088         1.039988         0.216709
 H        -1.347809         2.032438        -0.878680
 H         0.857224         2.325676         0.525386
 H        -0.075090         1.216807         1.531274
 H         1.279380         0.355683        -1.032165
 H        -0.955969         3.988732         1.550075
