19
Iteration:  2165
 O        -3.646164         4.656202         0.852005
 C        -3.419468         3.276391         1.069114
 C        -2.302335         3.000250         2.154725
 C        -2.187936         1.460653         2.333617
 C        -1.677819         1.290844         0.837196
 C        -0.156720         1.182193         0.820871
 C         0.424411         0.909006        -0.602907
 O         0.342008        -0.184403        -1.179149
 C        -2.028854         2.755868         0.654787
 H        -3.771180         4.991780        -0.070913
 H        -4.305910         2.709689         1.001816
 H        -1.993076         3.743487         2.853933
 H        -1.366652         1.052790         3.000568
 H        -3.182798         0.880901         2.513702
 H        -2.128657         0.460699         0.390144
 H         0.263660         2.097306         1.223514
 H         0.129261         0.376066         1.546353
 H         0.840231         1.855531        -1.088763
 H        -1.759139         3.363553        -0.165139
