19
Iteration:    99
 O        -3.396360         4.890948         1.628419
 C        -2.638871         3.900937         0.900521
 C        -3.253149         2.527364         0.933728
 C        -2.454510         1.628850         0.008941
 C        -1.107519         2.009357         0.765223
 C        -0.095494         0.929338         1.263453
 C         0.339499         0.305922        -0.065181
 O        -0.175547        -0.656209        -0.539405
 C        -1.916331         2.854864         1.742248
 H        -3.335117         4.742788         2.569028
 H        -2.249017         4.426838         0.056539
 H        -4.248509         2.406604         1.298216
 H        -2.768468         0.662254         0.259143
 H        -2.386855         1.894925        -0.998255
 H        -0.501497         2.707872         0.104250
 H         0.732053         1.445118         1.630758
 H        -0.285557         0.134283         1.952734
 H         1.353530         0.615769        -0.526612
 H        -1.984176         2.904784         2.857698
