19
Iteration:  4492
 O        -3.061836         5.041460         2.026645
 C        -2.374438         4.044945         1.328057
 C        -3.201630         3.029585         0.559506
 C        -2.478839         2.078790        -0.380603
 C        -1.314195         1.975275         0.724033
 C        -0.745100         0.537615         1.034804
 C        -0.213753        -0.099188        -0.280676
 O         0.830748        -0.780052        -0.218880
 C        -2.357638         2.605301         1.768185
 H        -2.522540         5.079473         2.876027
 H        -1.383181         4.411660         0.847234
 H        -4.292908         3.197595         0.302649
 H        -3.069960         1.168143        -0.420902
 H        -2.283431         2.271551        -1.487112
 H        -0.489929         2.701724         0.526029
 H         0.221965         0.610708         1.664834
 H        -1.242606        -0.269574         1.559061
 H        -0.693363         0.042687        -1.260053
 H        -2.621214         2.116962         2.667474
