19
Iteration:  1844
 O        -3.179622         4.528603         0.351778
 C        -3.156301         3.188317         0.833984
 C        -2.315806         3.038016         2.121393
 C        -2.195834         1.506574         2.529322
 C        -1.726303         1.147843         1.086973
 C        -0.432044         0.324083         1.040828
 C         0.177179         0.451599        -0.432663
 O        -0.062360         1.406348        -1.189426
 C        -1.764926         2.676776         0.700286
 H        -3.460700         4.360265        -0.578340
 H        -4.062748         2.627290         0.811280
 H        -2.039833         3.937727         2.722527
 H        -1.474912         1.458277         3.227770
 H        -3.197851         1.127041         2.817746
 H        -2.604992         0.587805         0.565770
 H         0.388155         0.522658         1.765293
 H        -0.751380        -0.671762         1.355187
 H         0.768658        -0.504014        -0.752096
 H        -1.047242         3.235940         0.072291
