19
Iteration:   964
 O        -3.421681         4.805918         1.911234
 C        -3.136523         3.735125         0.968443
 C        -2.975369         2.417273         1.631918
 C        -2.580567         1.303820         0.578583
 C        -1.368140         2.167057         0.150383
 C        -0.079920         1.407528         0.387849
 C        -0.036217         0.181025        -0.295735
 O         0.559309        -0.833687         0.073025
 C        -1.746884         3.182780         1.206480
 H        -2.996622         5.649624         1.602520
 H        -3.729030         3.811873         0.059898
 H        -3.372824         2.273543         2.647749
 H        -2.049666         0.351738         1.031266
 H        -3.276105         0.938103        -0.211173
 H        -1.425215         2.785900        -0.796992
 H         0.549726         2.093206        -0.157595
 H         0.259126         1.374929         1.413187
 H        -0.361851         0.213502        -1.433056
 H        -1.033840         3.779941         1.811966
