19
Iteration:   101
 O        -3.384165         4.920105         1.650275
 C        -2.659888         3.891145         0.898609
 C        -3.257765         2.533670         0.920042
 C        -2.444736         1.611354        -0.001463
 C        -1.119175         1.998535         0.767539
 C        -0.106012         0.929183         1.238960
 C         0.346716         0.307841        -0.059422
 O        -0.174135        -0.643788        -0.523715
 C        -1.904986         2.853989         1.730878
 H        -3.407662         4.709888         2.615312
 H        -2.251545         4.421517         0.019554
 H        -4.297274         2.364601         1.300543
 H        -2.739395         0.573227         0.262281
 H        -2.385726         1.883854        -0.974050
 H        -0.492939         2.644834         0.093874
 H         0.746279         1.466220         1.602055
 H        -0.282565         0.127472         1.953161
 H         1.404812         0.572776        -0.483546
 H        -1.951578         2.885224         2.859283
