19
Iteration:  2173
 O        -3.627076         4.664934         0.832394
 C        -3.363817         3.226567         1.074817
 C        -2.364456         2.977740         2.097976
 C        -2.206643         1.440081         2.349427
 C        -1.627758         1.312727         0.912010
 C        -0.073504         1.174906         0.860880
 C         0.369257         0.906206        -0.578385
 O         0.280055        -0.128840        -1.203258
 C        -2.053902         2.789203         0.605970
 H        -3.641155         4.558853        -0.165383
 H        -4.358074         2.644667         1.167798
 H        -1.989298         3.582138         2.874219
 H        -1.478746         1.352783         3.052057
 H        -3.165729         0.922614         2.577211
 H        -2.059756         0.523099         0.238958
 H         0.405564         2.070724         1.304831
 H         0.158116         0.095399         1.352482
 H         0.814171         1.803507        -0.989445
 H        -1.611367         3.526738        -0.172366
