19
Iteration:  1462charge 0 multiplicity 1
 O        -3.787464         4.783264         1.416057
 C        -3.250618         3.528863         0.965221
 C        -2.671646         2.593232         2.019038
 C        -2.249911         1.260952         1.451686
 C        -1.291803         1.981908         0.365152
 C         0.129200         1.415828         0.492976
 C         0.377694        -0.005226         0.016170
 O        -0.171621        -0.513983        -0.975842
 C        -1.726536         3.370304         1.025741
 H        -3.401238         5.369731         0.769611
 H        -3.823233         3.091952         0.197722
 H        -2.671856         2.864925         3.129704
 H        -1.721556         0.710984         2.241989
 H        -2.851365         0.373628         1.112602
 H        -1.644596         1.977697        -0.669195
 H         0.951806         1.989973         0.039794
 H         0.715315         1.377978         1.496397
 H         0.904048        -0.646659         0.746430
 H        -1.261030         4.411069         1.058481
