19
Iteration:  2903
 O        -3.819743         4.682260         1.122507
 C        -3.322883         3.377675         1.108511
 C        -2.390176         3.006454         2.204023
 C        -2.254235         1.540455         2.196434
 C        -1.704857         1.521037         0.698406
 C        -0.301104         0.939410         0.639560
 C        -0.000833         0.448872        -0.767805
 O         1.003684        -0.199493        -0.985176
 C        -1.906732         3.108519         0.675254
 H        -4.143216         4.950666         0.225574
 H        -3.975033         2.530361         1.001329
 H        -1.962814         3.801092         2.991183
 H        -1.497601         1.283129         2.908298
 H        -3.237635         0.889344         2.384164
 H        -2.287257         0.970010        -0.150214
 H         0.652560         1.571253         0.906966
 H        -0.084811         0.030664         1.266371
 H        -0.757968         0.616015        -1.611502
 H        -1.387673         3.914212         0.023463
