19
Iteration:  3184
 O        -3.181283         4.687359         0.573299
 C        -3.013026         3.332226         0.928039
 C        -2.185636         2.982872         2.148532
 C        -2.293891         1.433568         2.455065
 C        -1.912197         1.164251         0.923307
 C        -0.670397         0.202193         0.864526
 C         0.134387         0.368005        -0.417513
 O         0.146514         1.353318        -1.149189
 C        -1.708613         2.705566         0.695441
 H        -3.542393         4.661037        -0.309212
 H        -3.919943         2.821002         0.813530
 H        -1.587114         3.693092         2.599819
 H        -1.437190         1.100813         3.231414
 H        -3.305312         1.127336         2.695094
 H        -2.740789         0.820992         0.222900
 H        -0.064467         0.435815         1.725738
 H        -1.167728        -0.730814         1.017042
 H         0.828215        -0.368335        -0.801930
 H        -1.031007         3.164244         0.027043
