19
Iteration:  3168
 O        -3.211979         4.706594         0.549522
 C        -3.067695         3.339735         0.930038
 C        -2.086780         3.000634         2.102059
 C        -2.302667         1.527658         2.412970
 C        -1.841494         1.119390         0.995905
 C        -0.673714         0.173012         0.766987
 C         0.054464         0.348993        -0.483063
 O         0.141620         1.442831        -1.014568
 C        -1.660704         2.618030         0.690000
 H        -3.602574         4.723610        -0.371239
 H        -3.955839         2.614011         0.825534
 H        -2.021311         3.838121         2.904509
 H        -1.627661         1.220621         3.108562
 H        -3.272670         1.147354         2.806819
 H        -2.603592         0.591476         0.466852
 H         0.112820         0.174524         1.672333
 H        -0.988562        -1.051262         0.814964
 H         0.510369        -0.661775        -0.699664
 H        -0.797224         3.131948         0.107981
