19
Iteration:   911charge 0 multiplicity 1
 O        -3.730051         4.836982         1.902126
 C        -3.043357         3.902421         1.123387
 C        -2.943432         2.448633         1.546936
 C        -2.669866         1.447956         0.574153
 C        -1.371617         2.216407         0.102436
 C        -0.107810         1.301702         0.317968
 C        -0.110296        -0.164999        -0.244408
 O         0.866451        -0.857802        -0.005247
 C        -1.616327         3.265333         1.329039
 H        -3.295915         5.710725         1.692486
 H        -3.335670         4.061784         0.008829
 H        -3.228327         2.042356         2.531573
 H        -2.532209         0.414135         0.890520
 H        -3.379684         1.490507        -0.190460
 H        -1.524534         2.762720        -0.846686
 H         0.458139         1.785433        -0.545198
 H         0.465233         1.424591         1.275361
 H        -0.885124        -0.415549        -1.012699
 H        -0.884575         3.613121         2.102193
