19
Iteration:  2223
 O        -3.681146         4.438316         0.669967
 C        -3.191614         3.158064         0.846332
 C        -2.468136         2.999646         2.099319
 C        -2.132474         1.526179         2.523476
 C        -1.548183         1.361686         1.052259
 C        -0.103454         0.894759         0.963489
 C         0.300430         0.995699        -0.505944
 O        -0.058335         0.177308        -1.346102
 C        -1.725725         2.821039         0.678032
 H        -3.897372         4.400749        -0.289807
 H        -3.884194         2.466519         0.439477
 H        -2.405464         3.801994         2.911357
 H        -1.130401         1.371262         3.211300
 H        -2.991179         0.929057         2.868314
 H        -2.143359         0.622076         0.503871
 H         0.467881         1.667247         1.505851
 H        -0.049881        -0.049654         1.344630
 H         0.886753         1.906899        -0.791407
 H        -0.931467         3.540331         0.399267
