19
Iteration:  3475
 O        -3.473312         4.777158         1.479975
 C        -3.136214         3.555902         0.952394
 C        -2.601415         2.546237         1.987867
 C        -2.384540         1.214662         1.363336
 C        -1.313362         1.872502         0.388678
 C         0.090863         1.320056         0.629121
 C         0.222081         0.015389        -0.030791
 O        -0.351347        -0.214621        -1.060691
 C        -1.694390         3.278904         1.078678
 H        -3.015874         5.479450         1.020199
 H        -3.781343         3.308790         0.067667
 H        -2.676530         2.742757         3.090275
 H        -1.897221         0.540484         2.024113
 H        -3.287708         0.659863         0.908946
 H        -1.716519         1.788025        -0.711339
 H         0.866284         2.020939         0.256797
 H         0.264763         1.147286         1.785083
 H         0.907695        -0.857623         0.394020
 H        -1.011955         4.114144         1.223199
