19
Iteration:  4147charge 0 multiplicity 1
 O        -3.353057         4.851415         2.053391
 C        -2.711757         4.052882         1.049698
 C        -3.152599         2.569064         0.956027
 C        -2.519151         1.677945        -0.098709
 C        -1.076889         1.981963         0.538083
 C        -0.232676         0.918715         1.133773
 C         0.345181         0.007117         0.124541
 O        -0.237991        -0.608506        -0.774708
 C        -1.770809         2.926537         1.601994
 H        -2.587327         5.412432         2.314767
 H        -2.469241         4.544724         0.075447
 H        -3.990477         2.120689         1.492720
 H        -2.991521         0.613184         0.162237
 H        -2.827231         1.941236        -1.120821
 H        -0.342612         2.425307        -0.110377
 H         0.469219         1.708511         1.513060
 H        -0.652338         0.287103         1.970610
 H         1.435695        -0.193246         0.254572
 H        -1.505405         3.218611         2.542469
