19
Iteration:  2221
 O        -3.674740         4.448499         0.670514
 C        -3.211478         3.157653         0.865731
 C        -2.456584         2.981687         2.101874
 C        -2.143895         1.525643         2.521338
 C        -1.552556         1.363689         1.038482
 C        -0.093346         0.906510         0.969597
 C         0.292882         1.009882        -0.509922
 O        -0.048413         0.160507        -1.337696
 C        -1.719952         2.821418         0.662270
 H        -3.916996         4.499214        -0.248902
 H        -3.888290         2.471755         0.484114
 H        -2.461169         3.797188         2.914514
 H        -1.165246         1.424646         3.152910
 H        -3.011581         0.884394         2.870481
 H        -2.113562         0.652045         0.517012
 H         0.516747         1.697403         1.472256
 H        -0.017343        -0.116788         1.332069
 H         0.887454         1.866389        -0.760437
 H        -0.979944         3.473156         0.317200
