19
Iteration:  4694charge 0 multiplicity 1
 O        -2.838427         4.966652         2.189185
 C        -2.314032         3.986972         1.293250
 C        -3.235272         3.052620         0.488552
 C        -2.411914         2.274714        -0.606882
 C        -1.478848         1.857243         0.672590
 C        -1.090150         0.409422         1.063127
 C         0.076773        -0.463348         0.383182
 O         0.735992        -0.250237        -0.574842
 C        -2.382526         2.518967         1.566861
 H        -2.361450         5.003099         3.050234
 H        -1.290290         4.284660         0.770224
 H        -4.283820         3.405802         0.458368
 H        -3.046346         1.492965        -1.192127
 H        -1.923491         3.005973        -1.286152
 H        -0.494515         2.319312         0.611418
 H        -0.874492         0.440121         2.132212
 H        -2.044900        -0.233903         1.044787
 H         0.350895        -1.313683         0.992695
 H        -2.659006         2.087932         2.484336
