19
Iteration:  4258
 O        -3.578547         4.529397         2.047249
 C        -2.701999         3.977227         1.028602
 C        -3.068534         2.594373         0.767632
 C        -2.023028         2.110324        -0.157656
 C        -0.833908         2.367113         0.704172
 C        -0.029032         1.058643         0.955411
 C        -0.093448         0.071893        -0.254595
 O        -0.490255        -1.118790        -0.253389
 C        -1.797495         2.888947         1.732264
 H        -3.155403         5.271045         2.482800
 H        -2.186266         4.769042         0.423862
 H        -4.018194         2.072038         0.938867
 H        -2.239221         1.030147        -0.432610
 H        -2.029939         2.485677        -1.187036
 H        -0.340770         3.199229         0.326259
 H         1.009060         1.405519         1.208433
 H        -0.533881         0.531735         1.801413
 H         0.374734         0.448885        -1.180680
 H        -1.564929         2.943528         2.846266
