19
Iteration:   362charge 0 multiplicity 1
 O        -3.605006         4.823757         1.420875
 C        -2.715411         3.860383         0.928523
 C        -3.198211         2.454180         1.256520
 C        -2.448775         1.585522         0.202014
 C        -1.000457         2.052491         0.693005
 C         0.030505         1.050166         1.103694
 C         0.408241         0.034435         0.101835
 O        -0.344211        -0.418924        -0.738926
 C        -1.817897         2.904263         1.763091
 H        -3.175651         5.473649         1.987326
 H        -2.335798         4.088695        -0.051940
 H        -3.885029         2.357784         2.063467
 H        -2.621099         0.454532         0.319931
 H        -2.622161         1.835010        -0.915540
 H        -0.395667         2.630004        -0.040948
 H         1.009937         1.554783         1.501574
 H        -0.313899         0.377830         2.010837
 H         1.558496        -0.200780         0.140099
 H        -1.483756         3.234002         2.695108
