19
Iteration:  1405
 O        -3.743702         4.638597         1.657257
 C        -3.096365         3.510965         0.957641
 C        -2.537970         2.544323         1.944824
 C        -2.339570         1.273233         1.234815
 C        -1.313134         1.960793         0.139577
 C         0.136744         1.616239         0.357281
 C         0.081271         0.113359         0.310888
 O        -0.087100        -0.485705        -0.769551
 C        -1.637208         3.280280         0.922401
 H        -3.860085         5.287062         0.914623
 H        -3.720667         3.066882         0.177687
 H        -2.704806         2.685443         2.991124
 H        -1.935599         0.417412         1.706443
 H        -3.275764         0.938857         0.661252
 H        -1.672635         1.701058        -0.908852
 H         0.686048         1.804761        -0.619006
 H         0.678975         2.045504         1.274142
 H         0.036112        -0.377239         1.266500
 H        -0.802128         3.971912         1.139807
