19
Iteration:  4209charge 0 multiplicity 1
 O        -3.565253         4.676098         1.842007
 C        -2.641665         3.902982         1.157949
 C        -2.994764         2.452838         1.010676
 C        -2.179541         1.917646        -0.167650
 C        -0.855223         2.237529         0.566908
 C        -0.173128         1.033478         1.167644
 C         0.075424         0.124610        -0.151150
 O        -0.552629        -0.832975        -0.484766
 C        -1.684007         2.883251         1.715677
 H        -3.344941         5.466826         2.371739
 H        -2.460088         4.333952         0.175924
 H        -3.897663         2.134417         1.602200
 H        -2.241263         0.886760        -0.524268
 H        -2.278293         2.449104        -1.167160
 H        -0.075010         3.002419         0.134917
 H         0.753729         1.427231         1.659272
 H        -0.773083         0.285854         1.728172
 H         0.743325         0.596703        -0.882489
 H        -1.459009         2.858999         2.813161
