19
Iteration:    38charge 0 multiplicity 1
 O        -3.531802         4.979871         1.671854
 C        -2.763622         3.951631         0.990636
 C        -3.132456         2.431319         1.040375
 C        -2.248054         1.775123         0.007108
 C        -0.926657         2.187152         0.822004
 C        -0.209125         0.801980         1.245720
 C         0.238714         0.214650        -0.147520
 O        -0.078972        -0.885928        -0.598772
 C        -1.910245         2.915018         1.798767
 H        -4.326701         5.130706         1.130725
 H        -2.289280         4.335716         0.035122
 H        -4.223599         2.273704         1.306363
 H        -2.342650         0.649285        -0.326084
 H        -2.247432         2.192897        -1.112869
 H        -0.247547         2.877080         0.353477
 H         0.605490         0.944839         2.070188
 H        -1.034115         0.064181         1.475640
 H         0.708133         1.042275        -0.824267
 H        -1.743452         3.232665         2.867663
