19
Iteration:  1360
 O        -3.523774         4.736584         1.729770
 C        -3.296418         3.563248         1.055455
 C        -2.789245         2.498394         1.960093
 C        -2.328076         1.269667         1.054335
 C        -1.387250         2.059376         0.126959
 C         0.023525         1.575622         0.288766
 C         0.336079         0.028318         0.263806
 O         0.045109        -0.696774        -0.664202
 C        -1.804451         3.330728         0.886883
 H        -3.142903         5.561505         1.339667
 H        -3.924044         3.429073         0.143357
 H        -2.750489         2.519171         3.026747
 H        -1.800197         0.597122         1.684377
 H        -3.186665         0.635178         0.610882
 H        -1.711249         2.186528        -0.998228
 H         0.602902         2.023421        -0.640603
 H         0.470725         2.030415         1.252839
 H         1.070086        -0.249980         1.125525
 H        -1.358341         4.292482         0.990031
