19
Iteration:   858charge 0 multiplicity 1
 O        -3.384424         4.820044         1.948966
 C        -3.069019         3.836917         0.985488
 C        -3.035463         2.416622         1.610748
 C        -2.787948         1.332731         0.478808
 C        -1.455922         2.070545         0.198092
 C        -0.092201         1.408231         0.583841
 C        -0.092766        -0.032406        -0.098793
 O         0.869757        -0.735983        -0.192580
 C        -1.773918         3.226537         1.114246
 H        -2.875187         5.573948         1.540657
 H        -3.475416         4.122268        -0.054965
 H        -3.488725         2.445268         2.618074
 H        -2.498771         0.378500         0.789777
 H        -3.381309         1.160392        -0.431657
 H        -1.477978         2.495128        -0.768788
 H         0.717626         2.050533         0.055226
 H         0.188826         1.373899         1.692238
 H        -1.134940        -0.160946        -0.514023
 H        -0.958443         3.672065         1.744761
