19
Iteration:  3811
 O        -3.273993         4.932769         1.920535
 C        -2.820211         3.986730         1.049233
 C        -3.147908         2.645792         1.646709
 C        -3.011299         1.521796         0.507152
 C        -1.535808         1.912720         0.241900
 C        -0.428242         1.012566         0.698517
 C        -0.076015        -0.113999        -0.290022
 O         1.077116        -0.590688        -0.410082
 C        -1.627787         3.071981         1.243068
 H        -2.669971         5.698216         1.871822
 H        -3.249004         4.099912         0.076043
 H        -3.550989         2.589664         2.650150
 H        -3.141771         0.547881         0.877619
 H        -3.553566         1.506238        -0.451977
 H        -1.264058         2.357290        -0.837703
 H         0.588410         1.520042         0.910884
 H        -0.766948         0.446553         1.627969
 H        -1.069208        -0.563467        -0.661367
 H        -0.699758         3.453574         1.840917
