19
Iteration:  1460charge 0 multiplicity 1
 O        -3.790081         4.776079         1.426600
 C        -3.258423         3.522037         0.978823
 C        -2.668731         2.604264         2.024304
 C        -2.246806         1.264770         1.425378
 C        -1.277700         2.002493         0.363054
 C         0.127020         1.426814         0.484631
 C         0.359802        -0.013083         0.022366
 O        -0.167833        -0.521405        -0.972406
 C        -1.720783         3.371213         1.026849
 H        -3.400327         5.374653         0.754672
 H        -3.826081         3.037091         0.155941
 H        -2.695666         2.852322         3.103507
 H        -1.702216         0.750992         2.156254
 H        -2.813647         0.346992         1.098102
 H        -1.716865         1.862135        -0.697310
 H         1.012478         2.001613         0.083186
 H         0.662151         1.409376         1.499719
 H         0.854779        -0.657390         0.841053
 H        -1.173061         4.386325         1.032560
