19
Iteration:    70charge 0 multiplicity 1
 O        -3.563124         4.809220         1.553868
 C        -2.568899         3.914046         1.004884
 C        -3.145654         2.510097         0.969004
 C        -2.310688         1.643451         0.066998
 C        -1.027294         2.144103         0.804156
 C        -0.233020         0.909229         1.218341
 C         0.210043         0.324901        -0.111416
 O        -0.149288        -0.754736        -0.606170
 C        -1.866391         2.859857         1.868235
 H        -3.211313         5.716000         1.486677
 H        -2.037614         4.448719         0.166971
 H        -4.232643         2.480421         1.241498
 H        -2.512377         0.508539         0.237718
 H        -2.311516         1.815247        -1.057275
 H        -0.448167         2.856205         0.227197
 H         0.715551         1.193781         1.788629
 H        -0.759235         0.116161         1.801344
 H         0.939161         0.930528        -0.650847
 H        -1.783374         2.960744         2.972256
