19
Iteration:  2857
 O        -3.705968         4.730461         1.022575
 C        -3.437395         3.350724         1.108318
 C        -2.557768         2.990471         2.241355
 C        -2.248447         1.475902         2.323795
 C        -1.732039         1.516466         0.827598
 C        -0.131951         1.111776         0.570398
 C         0.176758         0.609712        -0.840049
 O         0.843603        -0.385965        -1.063930
 C        -1.967975         2.969363         0.719818
 H        -3.441740         4.908209         0.126086
 H        -4.255401         2.681063         0.720738
 H        -2.613352         3.629143         3.114617
 H        -1.356471         1.391868         2.887027
 H        -3.074876         0.769568         2.764836
 H        -2.307053         0.808056         0.163567
 H         0.400940         2.142859         0.751703
 H         0.288124         0.445736         1.214214
 H        -0.142380         1.239993        -1.726518
 H        -1.229731         3.758053         0.420030
