19
Iteration:    31charge 0 multiplicity 1
 O        -3.481263         4.945072         1.684220
 C        -2.758877         3.949040         0.986975
 C        -3.146724         2.447812         1.068572
 C        -2.257515         1.825163        -0.055395
 C        -0.967124         2.165354         0.820283
 C        -0.199172         0.841686         1.262526
 C         0.221412         0.186114        -0.128783
 O        -0.042714        -0.921916        -0.615174
 C        -1.962395         2.948643         1.763761
 H        -4.426450         4.814732         1.420966
 H        -2.363120         4.250812         0.031922
 H        -4.232700         2.256347         1.118555
 H        -2.341360         0.797829        -0.209179
 H        -2.318270         2.526285        -0.880523
 H        -0.214779         2.839834         0.307619
 H         0.561507         1.001605         2.007538
 H        -0.944581         0.211070         1.759958
 H         0.862911         0.864082        -0.780954
 H        -1.684654         3.268403         2.730627
