19
Iteration:  3731
 O        -3.412866         4.798289         2.029777
 C        -2.926333         3.893235         1.048940
 C        -2.960113         2.472930         1.572098
 C        -2.740852         1.477050         0.453902
 C        -1.380494         2.202249         0.193838
 C        -0.127787         1.414706         0.349748
 C        -0.184341         0.001919        -0.225092
 O         0.586604        -0.902535        -0.092352
 C        -1.658574         3.078144         1.275016
 H        -2.869021         5.578645         1.872741
 H        -3.131683         4.083114        -0.059836
 H        -3.068935         2.181629         2.617901
 H        -2.624081         0.344772         0.836056
 H        -3.292167         1.511704        -0.507647
 H        -1.382954         2.773977        -0.881713
 H         0.835905         1.770535        -0.125708
 H         0.250385         1.238000         1.498861
 H        -1.087501        -0.200987        -0.960178
 H        -0.985533         3.469675         1.937762
