19
Iteration:  1412charge 0 multiplicity 1
 O        -3.740206         4.591953         1.608563
 C        -3.121462         3.528774         1.002136
 C        -2.516397         2.568671         1.948668
 C        -2.328390         1.255728         1.213253
 C        -1.400946         1.936412         0.236623
 C         0.195824         1.565258         0.320528
 C         0.064683         0.064050         0.303202
 O        -0.089654        -0.439989        -0.771092
 C        -1.577543         3.342311         0.875549
 H        -3.897069         5.269199         0.924730
 H        -3.766428         3.132752         0.133759
 H        -2.872239         2.659179         2.969285
 H        -2.004415         0.364464         1.792520
 H        -3.237228         0.854064         0.827162
 H        -1.710785         2.139847        -0.813395
 H         0.778481         2.103815        -0.455371
 H         0.620875         1.900267         1.211775
 H         0.106983        -0.495264         1.328802
 H        -0.865835         4.080720         1.094176
