19
Iteration:   914
 O        -3.736825         4.826589         1.894475
 C        -3.049581         3.884408         1.105822
 C        -2.911145         2.459193         1.565293
 C        -2.681021         1.467132         0.570909
 C        -1.372139         2.198747         0.104100
 C        -0.109954         1.343262         0.332220
 C        -0.092287        -0.143951        -0.247410
 O         0.837257        -0.853816        -0.002108
 C        -1.607212         3.218118         1.332450
 H        -3.291192         5.678901         1.740778
 H        -3.318318         4.154926         0.011661
 H        -3.234434         2.135718         2.495197
 H        -2.532411         0.518553         0.922295
 H        -3.471245         1.466592        -0.213499
 H        -1.529665         2.688178        -0.820562
 H         0.493802         1.711110        -0.600709
 H         0.500935         1.413384         1.301936
 H        -0.850184        -0.490137        -1.084853
 H        -0.808138         3.601647         2.059980
