19
Iteration:  2098
 O        -3.858001         4.710123         1.176336
 C        -3.466102         3.376291         1.160687
 C        -2.324304         3.069091         2.063118
 C        -2.151833         1.555269         2.192372
 C        -1.669930         1.458357         0.716800
 C        -0.305405         0.920045         0.713038
 C         0.243163         0.620453        -0.716471
 O         0.893798        -0.355126        -1.024279
 C        -2.055603         3.055545         0.567963
 H        -4.272357         4.907552         0.339021
 H        -4.227573         2.621419         1.046302
 H        -1.851869         3.630546         2.846533
 H        -1.331197         1.573461         2.881435
 H        -3.077498         0.930205         2.613732
 H        -2.163034         0.934510        -0.070092
 H         0.409340         1.589910         1.119130
 H        -0.246802        -0.032926         1.296831
 H         0.077339         1.433060        -1.500034
 H        -1.443256         3.655032        -0.183228
