19
Iteration:  2978charge 0 multiplicity 1
 O        -3.623784         4.804154         1.002366
 C        -3.366663         3.436705         1.132891
 C        -2.345307         3.024197         2.182900
 C        -2.263238         1.565777         2.424654
 C        -1.879752         1.340246         0.836860
 C        -0.476548         0.696454         0.569674
 C         0.032626         0.311742        -0.786098
 O         1.209092         0.234671        -1.100074
 C        -2.040865         2.925577         0.631586
 H        -3.522514         5.127633         0.104169
 H        -4.253046         2.720516         0.933191
 H        -1.976873         3.871364         2.928104
 H        -1.458043         1.318932         2.989819
 H        -3.053576         0.982799         2.930954
 H        -2.674264         0.990230         0.168456
 H         0.292406         1.198708         1.244647
 H        -0.577207        -0.387620         1.191124
 H        -0.748058        -0.105337        -1.491256
 H        -1.612699         3.659832        -0.159720
