19
Iteration:  4750charge 0 multiplicity 1
 O        -3.031213         4.878778         1.998443
 C        -2.222093         3.981683         1.294630
 C        -2.983840         3.047801         0.434713
 C        -2.108005         2.143881        -0.405301
 C        -1.346193         1.751830         0.842812
 C        -1.230581         0.213238         1.052997
 C         0.049121        -0.261069         0.388287
 O         0.368197        -0.060952        -0.748675
 C        -2.310474         2.632685         1.724814
 H        -2.744002         5.189590         2.893787
 H        -1.176543         4.270481         0.860374
 H        -4.039533         3.324124         0.280031
 H        -2.696655         1.261890        -0.855555
 H        -1.678313         2.680145        -1.283222
 H        -0.389185         2.215127         0.769446
 H        -1.163741         0.047620         2.105190
 H        -2.033586        -0.469893         0.628635
 H         0.865732        -0.686187         1.157424
 H        -2.822730         2.557506         2.669302
