19
Iteration:   673
 O        -3.309934         5.038182         1.401293
 C        -2.804453         3.769333         0.831439
 C        -3.301935         2.591794         1.613451
 C        -2.996633         1.409046         0.753667
 C        -1.457992         1.827742         0.704528
 C        -0.364522         0.817628         1.010138
 C         0.024642        -0.103646        -0.235220
 O         1.114652        -0.142773        -0.814053
 C        -1.752244         3.086505         1.506649
 H        -2.629733         5.517388         1.916414
 H        -2.844379         3.819956        -0.209329
 H        -3.838532         2.825668         2.541524
 H        -3.242957         0.501196         1.279231
 H        -3.566526         1.338178        -0.244567
 H        -1.152673         2.117564        -0.382724
 H         0.543628         1.328857         1.180808
 H        -0.629816         0.304726         1.910336
 H        -0.843108        -0.634153        -0.685003
 H        -1.128171         3.369931         2.286362
