19
Iteration:  1712charge 0 multiplicity 1
 O        -3.354130         4.666584         0.788344
 C        -3.155796         3.307875         0.891973
 C        -2.355757         2.952162         2.087850
 C        -2.401039         1.560800         2.329637
 C        -1.753808         1.235174         0.913275
 C        -0.307009         0.736316         1.027475
 C         0.414849         0.428807        -0.289215
 O        -0.003778         0.697759        -1.433473
 C        -1.789345         2.733208         0.635493
 H        -3.530806         4.784445        -0.173962
 H        -3.986897         2.645805         0.754589
 H        -1.997775         3.745760         2.740912
 H        -1.745815         1.161265         3.016107
 H        -3.330598         0.991174         2.589233
 H        -2.253852         0.681287         0.214436
 H         0.375111         1.520886         1.456556
 H        -0.369592        -0.146237         1.656525
 H         1.356573        -0.228616        -0.045708
 H        -0.947073         3.181421         0.122623
