19
Iteration:  2840
 O        -3.614698         4.703517         1.000913
 C        -3.445844         3.265342         1.013733
 C        -2.608258         2.940209         2.203966
 C        -2.109490         1.492082         2.277997
 C        -1.624336         1.468533         0.822536
 C        -0.167728         1.151456         0.559929
 C         0.172085         0.711544        -0.806772
 O         0.703630        -0.359757        -1.006029
 C        -2.018497         2.987895         0.833173
 H        -3.592401         4.969022         0.073731
 H        -4.356054         2.754201         0.691135
 H        -2.331533         3.733062         2.990537
 H        -1.441648         1.243553         3.160849
 H        -2.821174         0.711576         2.518379
 H        -2.300663         0.934510         0.176374
 H         0.358773         2.042051         0.822618
 H        -0.020139         0.256926         1.359624
 H        -0.071162         1.445033        -1.617150
 H        -1.535746         3.783897         0.241108
