19
Iteration:  3176
 O        -3.205302         4.722565         0.546501
 C        -3.038037         3.324650         0.935206
 C        -2.135608         3.006479         2.094004
 C        -2.295942         1.449621         2.471515
 C        -1.838155         1.166964         0.941241
 C        -0.711328         0.179432         0.844910
 C         0.111876         0.366849        -0.436929
 O         0.135326         1.398003        -1.077139
 C        -1.686154         2.636952         0.703872
 H        -3.618046         4.709183        -0.337348
 H        -4.001629         2.730221         0.789591
 H        -1.734126         3.790612         2.776491
 H        -1.522909         0.930915         3.158581
 H        -3.342043         1.151713         2.843941
 H        -2.673854         0.812565         0.248299
 H         0.077387         0.283597         1.572404
 H        -0.936212        -0.849902         0.808643
 H         0.618008        -0.588646        -0.852934
 H        -0.943058         3.174739         0.014734
