19
Iteration:  3110
 O        -3.173805         4.634565         0.512296
 C        -3.063725         3.268888         0.949677
 C        -2.305391         3.041199         2.203999
 C        -2.200443         1.520586         2.516775
 C        -1.937677         1.115113         1.020881
 C        -0.672485         0.254308         0.792966
 C        -0.180940         0.430080        -0.617607
 O         0.506265         1.373170        -0.998848
 C        -1.766226         2.570831         0.636506
 H        -2.808316         4.803903        -0.370897
 H        -4.045528         2.694711         0.738803
 H        -1.779556         3.830357         2.604024
 H        -1.249516         1.383231         2.970782
 H        -2.997555         0.914279         3.021230
 H        -2.835397         0.658743         0.563411
 H        -0.068013         0.872088         1.448673
 H        -0.917230        -0.705972         1.223258
 H        -0.400498        -0.351644        -1.375734
 H        -1.005178         3.001517         0.102287
