19
Iteration:  4459charge 0 multiplicity 1
 O        -3.119877         4.924470         2.006531
 C        -2.510364         4.085265         1.184087
 C        -3.281873         2.873491         0.755206
 C        -2.369611         2.260182        -0.339344
 C        -1.233246         2.068784         0.710297
 C        -0.807188         0.579228         1.034117
 C        -0.063761        -0.049138        -0.237243
 O         0.695537        -0.985607        -0.245596
 C        -2.202957         2.671393         1.722076
 H        -2.454835         5.296805         2.648710
 H        -1.767320         4.488529         0.391520
 H        -4.369807         2.707228         0.707518
 H        -2.653376         1.352151        -0.851845
 H        -1.977089         3.040504        -1.086204
 H        -0.307860         2.630123         0.598058
 H        -0.062612         0.554337         1.908544
 H        -1.631479        -0.155603         1.252697
 H        -0.432992         0.377649        -1.181759
 H        -2.233160         2.383090         2.727048
