19
Iteration:  3665
 O        -3.538009         4.727959         2.074063
 C        -3.056042         3.770626         1.115671
 C        -2.773063         2.413516         1.658969
 C        -2.645517         1.425546         0.479582
 C        -1.258834         2.246918         0.111319
 C         0.119183         1.429991         0.362715
 C         0.081963         0.117615        -0.413553
 O         0.038591        -1.025851         0.066240
 C        -1.593030         3.303821         1.111011
 H        -3.321893         5.639336         1.764409
 H        -3.574366         3.923932         0.137959
 H        -3.070830         2.166496         2.722227
 H        -2.548325         0.380258         0.998991
 H        -3.467791         1.342165        -0.227601
 H        -1.142535         2.711092        -0.992703
 H         0.944119         2.091312        -0.040848
 H         0.226855         1.321439         1.540193
 H        -0.030498         0.342090        -1.535763
 H        -0.851334         3.907232         1.533488
