19
Iteration:  3325
 O        -3.316040         4.902522         1.130442
 C        -3.046107         3.485021         0.966680
 C        -2.626917         2.812594         2.120854
 C        -2.638693         1.287082         1.946677
 C        -1.535888         1.401859         0.756402
 C        -0.153481         0.843836         0.940507
 C         0.466398         0.501793        -0.456562
 O        -0.193864         0.070805        -1.365118
 C        -1.664071         2.986198         0.849778
 H        -3.020110         5.411818         0.380234
 H        -3.833201         3.074013         0.319187
 H        -2.453501         3.231238         3.156452
 H        -2.215478         0.909115         2.867442
 H        -3.626732         0.933293         1.718197
 H        -1.893328         1.004457        -0.147339
 H         0.657394         1.457113         1.440543
 H        -0.215272        -0.165093         1.447987
 H         1.590383         0.654195        -0.433207
 H        -0.785439         3.695863         0.692754
