19
Iteration:  2771charge 0 multiplicity 1
 O        -3.878183         4.532728         0.909298
 C        -3.285759         3.232048         1.056975
 C        -2.349047         3.020931         2.139596
 C        -2.209662         1.582506         2.302950
 C        -1.555198         1.494819         0.828100
 C        -0.122454         0.975334         0.859596
 C         0.378816         0.844157        -0.609442
 O         0.284995        -0.221079        -1.210263
 C        -1.800932         2.969355         0.691953
 H        -4.159173         4.836391         0.001224
 H        -3.896701         2.420809         0.872752
 H        -2.169597         3.688727         2.889582
 H        -1.743757         1.257941         3.152965
 H        -3.216077         1.011822         2.263367
 H        -2.244334         0.915215         0.247800
 H         0.534007         1.710961         1.402342
 H         0.016578        -0.092842         1.125112
 H         0.845224         1.743733        -1.126702
 H        -1.472368         3.674307        -0.066479
