19
Iteration:    90
 O        -3.442280         4.804384         1.559709
 C        -2.601407         3.935281         0.951839
 C        -3.195034         2.557888         0.966771
 C        -2.453468         1.671003         0.035150
 C        -1.080575         2.041517         0.778802
 C        -0.059720         0.945440         1.286399
 C         0.350922         0.276648        -0.054480
 O        -0.194868        -0.705974        -0.599029
 C        -1.990748         2.865672         1.768009
 H        -3.095255         4.885467         2.446128
 H        -2.080730         4.278857         0.038640
 H        -4.234002         2.474992         1.307289
 H        -2.730526         0.593699         0.101421
 H        -2.553391         1.827243        -0.979422
 H        -0.485475         2.776989         0.193733
 H         0.757405         1.431893         1.785696
 H        -0.600128         0.240482         1.932097
 H         1.061409         0.981602        -0.656060
 H        -1.825394         2.983695         2.883753
