19
Iteration:  1328charge 0 multiplicity 1
 O        -3.576236         4.788910         1.805373
 C        -3.143404         3.692000         1.019943
 C        -2.771220         2.521111         1.871163
 C        -2.557621         1.181578         1.122012
 C        -1.468356         1.817008         0.125774
 C        -0.030042         1.621695         0.306356
 C         0.538193         0.167235         0.134678
 O         0.055395        -0.726567        -0.591668
 C        -1.733203         3.280567         0.879330
 H        -3.265049         5.602907         1.360909
 H        -3.656314         3.694052         0.068356
 H        -2.887001         2.498013         2.927119
 H        -2.167520         0.366381         1.660275
 H        -3.533335         0.872989         0.539432
 H        -1.832165         1.893068        -0.945543
 H         0.438844         2.343085        -0.453371
 H         0.343240         1.879825         1.361063
 H         1.513605         0.009821         0.708000
 H        -0.970471         4.033273         1.066558
