19
Iteration:  2072charge 0 multiplicity 1
 O        -3.890724         4.666795         1.143547
 C        -3.375480         3.388677         1.097423
 C        -2.382083         3.103098         2.173088
 C        -2.177064         1.600884         2.289850
 C        -1.746804         1.442570         0.757478
 C        -0.390135         0.924344         0.543454
 C         0.160379         0.477088        -0.819648
 O         1.070672        -0.321471        -1.015113
 C        -1.946505         3.159729         0.688124
 H        -4.253091         4.921940         0.291468
 H        -4.061672         2.484205         0.853457
 H        -2.084009         3.907649         2.900189
 H        -1.451409         1.345027         3.037049
 H        -3.149476         1.097267         2.453215
 H        -2.470059         0.853491         0.193092
 H         0.367064         1.707530         0.876464
 H        -0.171915        -0.041905         1.201703
 H        -0.446636         0.806738        -1.763570
 H        -1.172435         3.821773         0.337095
