19
Iteration:  1003
 O        -3.429872         4.760210         1.913384
 C        -3.190925         3.755208         0.933466
 C        -2.888717         2.444289         1.679939
 C        -2.644756         1.255629         0.693331
 C        -1.432704         2.066834         0.143035
 C        -0.034840         1.487157         0.477782
 C         0.334767         0.289007        -0.389819
 O         0.287506        -0.880326         0.031330
 C        -1.730019         3.222929         1.093025
 H        -2.874284         5.506646         1.674960
 H        -3.983195         3.680257         0.108606
 H        -3.216581         2.416570         2.781185
 H        -2.374306         0.359775         1.173404
 H        -3.495317         1.127807         0.017795
 H        -1.402531         2.276393        -0.927962
 H         0.779984         2.203978         0.124259
 H         0.157916         1.215279         1.552662
 H         0.458526         0.526838        -1.470575
 H        -1.050927         3.917942         1.527352
