19
Iteration:  2515
 O        -3.980873         4.186595         0.575880
 C        -3.178303         3.110571         0.902853
 C        -2.221900         3.222136         2.027289
 C        -1.925215         1.838198         2.568873
 C        -1.607484         1.282553         1.163205
 C        -0.288580         0.536305         0.997911
 C         0.285530         0.352932        -0.466436
 O         0.168545         1.170100        -1.350933
 C        -1.780447         2.722247         0.589733
 H        -4.020465         4.159898        -0.418413
 H        -3.886036         2.317573         1.068043
 H        -2.022643         4.150237         2.432439
 H        -1.181514         1.634383         3.236084
 H        -2.905715         1.284718         2.999744
 H        -2.441415         0.699379         0.733321
 H         0.644454         0.951563         1.595288
 H        -0.444665        -0.528527         1.223973
 H         0.686974        -0.730895        -0.548481
 H        -1.171623         3.202352        -0.155935
