19
Iteration:  4473charge 0 multiplicity 1
 O        -3.080631         4.992250         2.035393
 C        -2.393776         3.993116         1.193400
 C        -3.325499         2.960633         0.607626
 C        -2.354853         2.167671        -0.347763
 C        -1.342893         1.933971         0.790808
 C        -0.677026         0.639784         0.940034
 C        -0.161519        -0.040161        -0.231225
 O         0.740139        -0.888234        -0.212787
 C        -2.271880         2.609602         1.765193
 H        -2.499135         5.244743         2.774017
 H        -1.593961         4.488284         0.564909
 H        -4.388841         2.978764         0.908335
 H        -2.851189         1.217728        -0.824756
 H        -2.015179         2.850938        -1.192998
 H        -0.555887         2.617926         0.570915
 H         0.010401         0.676136         1.787442
 H        -1.535332        -0.072607         1.233667
 H        -0.641373         0.205167        -1.216868
 H        -2.454550         2.522393         2.854833
