19
Iteration:  1188charge 0 multiplicity 1
 O        -3.792944         4.782157         1.427442
 C        -3.105147         3.598739         0.941209
 C        -2.840410         2.442319         1.838765
 C        -2.287760         1.216002         1.124925
 C        -1.219366         2.044705         0.482469
 C         0.247144         1.445573         0.478846
 C         0.355229         0.288860        -0.459008
 O        -0.304626        -0.711118        -0.419889
 C        -1.626942         3.282317         1.403461
 H        -3.721400         5.392623         0.689913
 H        -3.395398         3.438007        -0.110416
 H        -3.282986         2.315132         2.873875
 H        -1.902981         0.555572         1.831676
 H        -2.923228         0.637040         0.392085
 H        -1.334914         2.335696        -0.529107
 H         0.900234         2.186139         0.074234
 H         0.541341         1.148290         1.510142
 H         1.206943         0.479152        -1.262358
 H        -1.152197         4.123031         1.907646
