19
Iteration:  4709charge 0 multiplicity 1
 O        -2.804669         5.002278         2.127255
 C        -2.322526         3.952331         1.345026
 C        -3.280135         3.081157         0.419464
 C        -2.327678         2.318130        -0.549616
 C        -1.360291         1.813284         0.579656
 C        -1.070247         0.302057         1.021511
 C         0.100024        -0.393343         0.479082
 O         0.608980        -0.206113        -0.633075
 C        -2.488624         2.499814         1.698355
 H        -2.311759         4.863987         2.916070
 H        -1.396162         4.288560         0.877734
 H        -4.378635         3.014973         0.427475
 H        -2.719750         1.444720        -1.092052
 H        -1.731421         2.927729        -1.307924
 H        -0.390122         2.317387         0.593212
 H        -0.763920         0.388431         2.082337
 H        -1.940125        -0.330524         1.039408
 H         0.456065        -1.143099         1.145931
 H        -3.001995         2.206822         2.708787
