19
Iteration:  1913charge 0 multiplicity 1
 O        -3.471199         4.656925         0.702213
 C        -3.265556         3.347436         0.988891
 C        -2.388415         3.030353         2.110585
 C        -2.318036         1.521866         2.329439
 C        -1.659936         1.280408         0.930733
 C        -0.284618         0.675241         1.032940
 C         0.124715         0.148369        -0.412382
 O         0.374544         0.873470        -1.381734
 C        -1.838323         2.763646         0.666514
 H        -3.085673         4.943883        -0.127438
 H        -4.066282         2.617728         0.853871
 H        -2.091126         3.792805         2.851239
 H        -1.590566         1.268507         3.138835
 H        -3.190847         0.943943         2.405743
 H        -2.239968         0.587154         0.290060
 H         0.430364         1.450796         1.503132
 H        -0.249676        -0.228813         1.695166
 H         0.087746        -0.990608        -0.484970
 H        -1.218182         3.544591         0.153024
