19
Iteration:  3657
 O        -3.473212         4.697767         2.055249
 C        -3.049308         3.794981         1.094521
 C        -2.799337         2.385760         1.651588
 C        -2.624736         1.320106         0.517960
 C        -1.246962         2.239635         0.110151
 C         0.071031         1.463758         0.391511
 C         0.156683         0.168249        -0.391998
 O        -0.056876        -0.966646         0.058993
 C        -1.623432         3.306196         1.085766
 H        -3.299276         5.593425         1.741890
 H        -3.441338         3.981324         0.116213
 H        -2.717291         2.125548         2.710664
 H        -2.521281         0.298379         0.846550
 H        -3.506654         1.440099        -0.072066
 H        -1.191389         2.540521        -0.924454
 H         0.830277         2.244526         0.151985
 H         0.253648         1.196856         1.410246
 H         0.097113         0.288815        -1.624849
 H        -0.964128         4.005021         1.555266
