19
Iteration:   483charge 0 multiplicity 1
 O        -3.395293         5.002628         1.736189
 C        -2.923960         3.924303         0.934723
 C        -3.158752         2.437224         1.437224
 C        -2.612986         1.417855         0.341231
 C        -1.242331         2.030331         0.392735
 C        -0.349539         0.988553         1.008775
 C         0.153910        -0.249276         0.270138
 O         0.527213        -0.272060        -0.879478
 C        -1.775679         3.040665         1.420438
 H        -3.056765         5.856772         1.371925
 H        -3.107326         4.050953        -0.144631
 H        -3.796322         2.221265         2.304841
 H        -2.457539         0.349395         0.788897
 H        -3.315601         1.132453        -0.486405
 H        -0.854727         2.591924        -0.521367
 H         0.659901         1.462731         1.276744
 H        -0.828225         0.689862         1.905249
 H         0.491365        -0.990519         1.055140
 H        -1.250621         3.462070         2.286063
