19
Iteration:  2530
 O        -3.907935         4.274743         0.428142
 C        -3.313302         3.028094         1.010847
 C        -2.188617         3.216488         2.016907
 C        -1.986037         1.756667         2.623862
 C        -1.576870         1.282704         1.142167
 C        -0.206796         0.537841         0.951547
 C         0.252569         0.369712        -0.461188
 O         0.099220         1.175910        -1.377331
 C        -1.738179         2.718732         0.694737
 H        -3.930305         4.280978        -0.517804
 H        -3.947143         2.008976         0.943290
 H        -2.047021         4.177243         2.664496
 H        -1.136352         1.961701         3.389605
 H        -2.768451         1.324888         3.235373
 H        -2.311300         0.451866         0.762520
 H         0.536551         1.110363         1.462920
 H        -0.302457        -0.462021         1.450586
 H         0.829869        -0.540385        -0.615919
 H        -1.236811         3.179095        -0.173895
