19
Iteration:   926
 O        -3.719031         4.766819         1.888970
 C        -3.025350         3.849210         1.027607
 C        -2.899599         2.523894         1.707886
 C        -2.734696         1.471909         0.509898
 C        -1.384004         2.168863         0.158074
 C        -0.080517         1.390098         0.242875
 C        -0.071876        -0.016933        -0.253657
 O         0.777781        -0.875501         0.035403
 C        -1.588419         3.130801         1.298491
 H        -3.270093         5.616140         1.904542
 H        -3.193433         3.925850        -0.077449
 H        -3.412443         2.494391         2.640429
 H        -2.519275         0.531323         0.949982
 H        -3.575295         1.324932        -0.232307
 H        -1.321278         2.572355        -0.834208
 H         0.803254         1.885229        -0.328448
 H         0.323005         1.401525         1.297207
 H        -0.902209        -0.222273        -1.058764
 H        -0.774697         3.558805         1.903657
