19
Iteration:  3882
 O        -2.974066         5.080512         1.624082
 C        -2.780014         3.892569         0.925307
 C        -3.266550         2.613987         1.617262
 C        -3.061272         1.430388         0.565410
 C        -1.538101         1.793422         0.570276
 C        -0.591720         0.661022         0.989919
 C        -0.031920        -0.083771        -0.296589
 O         1.078622        -0.068214        -0.727607
 C        -1.751426         2.934098         1.506553
 H        -2.184185         5.655775         1.526344
 H        -2.895652         3.826405        -0.189031
 H        -3.933537         2.915778         2.409712
 H        -3.150211         0.388809         1.079403
 H        -3.624148         1.405393        -0.364382
 H        -1.259696         2.085840        -0.541415
 H         0.265101         1.205150         1.273203
 H        -0.968637         0.102266         1.829468
 H        -0.967534        -0.473059        -0.792123
 H        -0.989686         3.388616         2.105710
