19
Iteration:  4379
 O        -3.493789         4.636092         2.301189
 C        -2.578700         4.104788         1.206882
 C        -3.101375         2.845661         0.734580
 C        -2.302017         2.376401        -0.485944
 C        -1.046684         2.227535         0.377476
 C        -0.655416         0.857213         0.879740
 C         0.041312        -0.101213        -0.128300
 O         0.263369        -1.302431        -0.017124
 C        -1.824462         2.862238         1.577134
 H        -2.927188         5.123266         2.970576
 H        -2.202468         4.898307         0.553448
 H        -4.147259         2.619439         0.959098
 H        -2.565234         1.435196        -1.054800
 H        -2.144204         3.079285        -1.345837
 H        -0.059224         2.639570         0.026267
 H        -0.003807         0.988580         1.797331
 H        -1.592220         0.338156         1.177601
 H         0.520551         0.443232        -1.018437
 H        -1.910109         2.572716         2.700699
