19
Iteration:  4651
 O        -3.110277         4.878430         2.179942
 C        -2.186578         4.138992         1.237836
 C        -3.060726         3.061077         0.570336
 C        -2.482013         2.156931        -0.461978
 C        -1.320818         1.825453         0.490366
 C        -1.270018         0.306503         0.943907
 C        -0.160393        -0.545967         0.219424
 O         0.839138        -0.106223        -0.363790
 C        -2.053062         2.690329         1.667694
 H        -2.492403         5.133873         2.928762
 H        -1.510205         4.862562         0.622010
 H        -4.148025         3.203405         0.649565
 H        -3.004777         1.107807        -0.518285
 H        -2.269863         2.436191        -1.538222
 H        -0.464982         2.325989         0.235248
 H        -1.044609         0.162907         1.980341
 H        -2.247252        -0.214760         0.751493
 H        -0.270165        -1.720711         0.377684
 H        -2.100203         2.348390         2.674974
