19
Iteration:  4243charge 0 multiplicity 1
 O        -3.571355         4.584439         1.972681
 C        -2.697943         3.995038         1.110359
 C        -2.979896         2.478886         0.883683
 C        -2.047232         1.985037        -0.282961
 C        -0.826779         2.330129         0.722737
 C        -0.062647         1.028509         1.046426
 C        -0.060347         0.128717        -0.285131
 O        -0.535524        -1.007783        -0.294536
 C        -1.818320         2.951589         1.738107
 H        -3.162387         5.363500         2.343476
 H        -2.461607         4.438632         0.169114
 H        -3.914634         2.136124         1.306751
 H        -2.089862         0.838337        -0.457232
 H        -2.058359         2.648418        -1.179307
 H         0.050216         3.035094         0.380644
 H         1.037817         1.200257         1.209625
 H        -0.476816         0.343191         1.876327
 H         0.238643         0.595219        -1.232755
 H        -1.890210         2.955382         2.772242
