19
Iteration:  1639charge 0 multiplicity 1
 O        -3.526012         4.808464         0.975843
 C        -3.285367         3.403429         0.950002
 C        -2.524545         2.910977         2.161962
 C        -2.431451         1.377739         2.097548
 C        -1.532429         1.582859         0.758989
 C        -0.082147         0.929439         0.951932
 C         0.567111         0.284368        -0.361296
 O        -0.001889         0.002028        -1.402194
 C        -1.833175         3.038631         0.798867
 H        -3.583778         5.113780         0.074831
 H        -3.995881         2.806512         0.329195
 H        -2.373040         3.548940         3.049558
 H        -1.928200         0.980651         3.049659
 H        -3.371395         0.834826         2.004983
 H        -2.057421         1.184667        -0.253263
 H         0.590581         1.729288         1.320210
 H        -0.184923         0.008290         1.655059
 H         1.634643         0.158443        -0.182336
 H        -1.154823         3.934168         0.652484
