19
Iteration:  3238charge 0 multiplicity 1
 O        -3.134787         4.835345         0.845302
 C        -3.114406         3.433727         0.976015
 C        -2.351638         2.911433         2.151987
 C        -2.506346         1.452264         2.327367
 C        -1.916490         1.149465         1.006981
 C        -0.420293         0.465025         0.910179
 C         0.404610         0.510442        -0.364845
 O         0.089356         0.846654        -1.509528
 C        -1.849443         2.651943         0.586974
 H        -2.694763         4.983426        -0.022087
 H        -4.040596         3.015012         0.700629
 H        -2.014993         3.637084         2.864262
 H        -1.889016         0.984164         3.130067
 H        -3.460222         1.091829         2.523800
 H        -2.477477         0.621630         0.273054
 H         0.144665         0.859143         1.791778
 H        -0.716017        -0.578427         1.256054
 H         1.489987         0.046384        -0.224062
 H        -0.893231         3.163317         0.362773
