19
Iteration:  1317
 O        -3.554388         4.780052         1.799510
 C        -3.098345         3.705525         0.966551
 C        -2.782919         2.501356         1.870508
 C        -2.600773         1.218525         1.070440
 C        -1.596595         1.880769         0.202573
 C        -0.035834         1.528147         0.344245
 C         0.569937         0.236056         0.044502
 O         0.054952        -0.671391        -0.529709
 C        -1.688493         3.196618         0.922788
 H        -3.419747         5.601673         1.241113
 H        -3.817797         3.440245         0.228245
 H        -2.660395         2.700872         2.903942
 H        -2.214057         0.434429         1.654781
 H        -3.431552         0.727623         0.403756
 H        -1.740548         1.711067        -0.903947
 H         0.642428         2.209840        -0.262018
 H         0.257336         1.920453         1.384782
 H         1.624416         0.106486         0.329276
 H        -0.793254         3.774724         0.871058
