19
Iteration:  1998charge 0 multiplicity 1
 O        -3.672506         4.722054         0.988871
 C        -3.387472         3.362349         1.043924
 C        -2.536337         3.018663         2.181650
 C        -2.238537         1.572307         2.265188
 C        -1.671421         1.446376         0.859326
 C        -0.155303         0.944103         0.715877
 C        -0.031789         0.174233        -0.586019
 O         0.951763         0.142439        -1.271313
 C        -1.947640         2.969255         0.748914
 H        -3.570959         5.166180         0.128735
 H        -4.139013         2.706203         0.674532
 H        -2.453094         3.716806         3.056996
 H        -1.561429         1.229522         2.965902
 H        -3.243895         0.912127         2.316314
 H        -2.484893         0.866565         0.314582
 H         0.515894         1.737672         0.706318
 H         0.142620         0.205808         1.428594
 H        -0.983733        -0.443387        -0.924152
 H        -1.371120         3.823398         0.287129
