19
Iteration:  3905charge 0 multiplicity 1
 O        -2.985036         5.026545         1.546835
 C        -2.633932         3.916968         0.893010
 C        -3.272933         2.703871         1.487691
 C        -3.197018         1.452191         0.698054
 C        -1.554386         1.712702         0.580324
 C        -0.429963         0.690137         0.941954
 C        -0.038244        -0.075718        -0.230200
 O         1.033814         0.052444        -0.785507
 C        -1.761924         2.821892         1.600006
 H        -2.239153         5.584962         1.720984
 H        -2.494245         3.820876        -0.229080
 H        -3.980268         2.824975         2.241842
 H        -3.697207         0.571786         1.358916
 H        -3.657956         1.439932        -0.299965
 H        -1.504759         2.034553        -0.545128
 H         0.375797         1.110703         1.465387
 H        -0.982362        -0.003049         1.556916
 H        -0.935221        -0.735987        -0.484939
 H        -1.287538         3.028010         2.592564
