19
Iteration:  4512charge 0 multiplicity 1
 O        -3.082202         5.015178         2.023764
 C        -2.317223         4.108915         1.392172
 C        -3.126341         3.152949         0.536167
 C        -2.563577         2.006490        -0.358778
 C        -1.423809         1.815107         0.661499
 C        -0.767964         0.517627         1.043485
 C        -0.198213        -0.158034        -0.165592
 O         0.929799        -0.676454        -0.308876
 C        -2.276774         2.636735         1.676206
 H        -2.777510         5.117050         2.966879
 H        -1.396427         4.387408         0.973840
 H        -4.185208         3.375272         0.546407
 H        -3.129831         1.140975        -0.347811
 H        -2.107878         2.085809        -1.304031
 H        -0.560399         2.589425         0.562760
 H        -0.131092         0.448385         1.961872
 H        -1.691863         0.023718         1.308985
 H        -1.087331        -0.348408        -0.895445
 H        -2.697928         2.386670         2.596488
