19
Iteration:  1021charge 0 multiplicity 1
 O        -3.547078         4.697907         1.854537
 C        -3.071461         3.677920         1.009620
 C        -2.876299         2.447229         1.775803
 C        -2.684592         1.365374         0.791638
 C        -1.438567         1.995278         0.094561
 C        -0.049226         1.513870         0.444301
 C         0.384144         0.317388        -0.343772
 O         0.198916        -0.884717        -0.029979
 C        -1.635695         3.264504         0.984146
 H        -3.166605         5.538244         1.599408
 H        -3.405918         3.856034         0.000056
 H        -3.006223         2.432111         2.812644
 H        -2.516231         0.360805         1.220959
 H        -3.471404         1.227210         0.042225
 H        -1.576809         2.355498        -0.985906
 H         0.606442         2.343982         0.381845
 H         0.001392         1.109341         1.484198
 H         1.125318         0.518225        -1.186646
 H        -0.891884         3.827666         1.604257
