19
Iteration:  4219
 O        -3.629540         4.690349         1.861923
 C        -2.686951         3.906570         1.177091
 C        -3.009343         2.461379         0.973304
 C        -2.122672         1.980262        -0.183538
 C        -0.808173         2.223746         0.613845
 C        -0.132330         1.003755         1.150506
 C         0.034568         0.199844        -0.202477
 O        -0.564638        -0.881407        -0.411598
 C        -1.672994         2.814652         1.664774
 H        -3.053585         5.402210         2.288389
 H        -2.269762         4.398024         0.268514
 H        -3.859674         1.804172         1.352620
 H        -2.364610         0.963628        -0.293265
 H        -2.171070         2.608191        -1.109171
 H         0.032218         2.832589         0.008724
 H         0.862537         1.217969         1.561313
 H        -0.800068         0.597393         1.932756
 H         0.472766         0.745122        -1.054723
 H        -1.325455         2.964227         2.748388
