19
Iteration:  3814charge 0 multiplicity 1
 O        -3.268280         4.930739         1.908870
 C        -2.817418         3.963810         1.026647
 C        -3.105133         2.652131         1.658034
 C        -3.058934         1.516364         0.503557
 C        -1.522618         1.934412         0.240649
 C        -0.439578         0.975885         0.734376
 C        -0.075825        -0.084565        -0.272799
 O         1.081595        -0.576656        -0.430500
 C        -1.633319         3.067647         1.244502
 H        -2.680410         5.752965         1.865710
 H        -3.184908         4.146045         0.023986
 H        -3.574012         2.604216         2.723254
 H        -3.106941         0.534454         0.908757
 H        -3.632016         1.621630        -0.416912
 H        -1.253410         2.284336        -0.863202
 H         0.499402         1.498165         0.930430
 H        -0.697086         0.385047         1.579684
 H        -1.002780        -0.615858        -0.715950
 H        -0.840289         3.396235         1.920187
