19
Iteration:    75
 O        -3.558605         4.801071         1.554076
 C        -2.542120         3.913009         0.965095
 C        -3.177774         2.534756         0.972225
 C        -2.342250         1.608425         0.046466
 C        -1.039862         2.144996         0.802259
 C        -0.187445         0.923618         1.225591
 C         0.245762         0.285644        -0.075027
 O        -0.158151        -0.737241        -0.619373
 C        -1.893825         2.851211         1.887747
 H        -3.170153         5.694213         1.740049
 H        -1.978834         4.382088         0.169338
 H        -4.220675         2.520784         1.227722
 H        -2.439730         0.582330         0.235675
 H        -2.405779         1.944598        -1.016462
 H        -0.453058         2.878153         0.184442
 H         0.674645         1.184861         1.840110
 H        -0.767270         0.229142         1.839049
 H         0.830251         0.997030        -0.786152
 H        -1.694259         2.989415         2.937167
