19
Iteration:  2002
 O        -3.687914         4.720574         0.988165
 C        -3.392771         3.375153         1.036907
 C        -2.533709         3.050187         2.225641
 C        -2.220844         1.530488         2.273118
 C        -1.677499         1.443979         0.816745
 C        -0.157870         0.922925         0.696838
 C        -0.043091         0.180418        -0.606291
 O         0.967722         0.114439        -1.245987
 C        -1.943061         2.980420         0.751963
 H        -3.501742         5.046300         0.090293
 H        -4.240710         2.761165         0.679019
 H        -2.556326         3.719294         3.090046
 H        -1.405671         1.237663         3.050683
 H        -3.058414         0.977976         2.361916
 H        -2.483868         0.974461         0.152819
 H         0.466285         1.911193         0.745343
 H         0.068542         0.239095         1.540689
 H        -0.983330        -0.318230        -1.003367
 H        -1.459040         3.884211         0.261107
