19
Iteration:  2875
 O        -3.801068         4.743681         1.049158
 C        -3.403253         3.405183         1.044710
 C        -2.467486         2.997491         2.250774
 C        -2.252295         1.474686         2.315539
 C        -1.704700         1.449072         0.794138
 C        -0.246006         1.102626         0.590923
 C         0.173145         0.529507        -0.801111
 O         0.945187        -0.367729        -1.102510
 C        -1.974277         3.040752         0.800470
 H        -3.742154         5.241774         0.237732
 H        -4.113415         2.565260         0.809190
 H        -2.015994         3.719132         2.825676
 H        -1.464217         1.223249         3.120749
 H        -3.129112         0.949743         2.291789
 H        -2.345878         0.908769         0.084698
 H         0.426985         1.887328         0.684455
 H         0.123428         0.379677         1.399998
 H        -0.449957         0.984489        -1.602924
 H        -1.409907         3.714861         0.248554
