19
Iteration:  4604
 O        -2.942571         4.859490         2.030970
 C        -2.435609         4.002209         1.106951
 C        -3.145044         2.739110         0.826642
 C        -2.344786         2.223027        -0.444280
 C        -1.186759         1.867272         0.621860
 C        -1.334146         0.361750         0.858724
 C        -0.365302        -0.441949        -0.000838
 O         0.768669        -0.000553        -0.120820
 C        -1.875164         2.660863         1.678818
 H        -2.234140         5.341811         2.431532
 H        -1.765581         4.629767         0.385280
 H        -4.219971         2.698385         0.894711
 H        -2.816079         1.404319        -1.024389
 H        -2.115629         3.079019        -1.092406
 H        -0.104304         2.116250         0.366220
 H        -0.909214         0.274245         1.863639
 H        -2.305251        -0.170268         0.839651
 H        -0.875406        -1.371457        -0.550394
 H        -1.924820         2.900752         2.792482
