19
Iteration:  3807charge 0 multiplicity 1
 O        -3.275919         4.947757         1.945393
 C        -2.838324         3.991830         1.067835
 C        -3.182217         2.625776         1.607493
 C        -2.948425         1.536208         0.513923
 C        -1.543858         1.910872         0.233951
 C        -0.395850         1.045894         0.652309
 C        -0.066923        -0.158724        -0.296379
 O         1.050979        -0.602330        -0.386300
 C        -1.618459         3.088710         1.258100
 H        -2.647589         5.683224         1.894434
 H        -3.309317         4.084097         0.025206
 H        -3.569557         2.542738         2.600199
 H        -3.161238         0.435125         0.916490
 H        -3.532253         1.449850        -0.445493
 H        -1.353517         2.343633        -0.670652
 H         0.543315         1.525149         0.884849
 H        -0.798454         0.586786         1.621477
 H        -1.032632        -0.526074        -0.670631
 H        -0.704257         3.442753         1.683312
