19
Iteration:   178charge 0 multiplicity 1
 O        -3.486479         4.766415         1.896622
 C        -2.825486         4.000210         0.956901
 C        -3.150566         2.544435         1.145272
 C        -2.694351         1.720624        -0.093365
 C        -1.094349         2.097231         0.401357
 C        -0.222604         0.979834         1.117405
 C         0.525901         0.011706         0.254391
 O         0.015171        -0.743302        -0.529271
 C        -1.730772         2.997325         1.415534
 H        -3.138124         5.651594         1.989323
 H        -2.859381         4.542784        -0.015417
 H        -3.955376         2.349050         1.961313
 H        -2.997561         0.624610        -0.028279
 H        -3.090348         2.079179        -1.039633
 H        -0.316606         2.711351        -0.199022
 H         0.461728         1.496202         1.709087
 H        -0.841220         0.388391         1.770118
 H         1.598611         0.025365         0.391994
 H        -1.347495         3.111463         2.433594
