19
Iteration:  2938
 O        -3.786905         4.723127         1.145596
 C        -3.300430         3.406263         1.066668
 C        -2.364597         3.074821         2.166316
 C        -2.213324         1.546943         2.291018
 C        -1.829369         1.506755         0.690190
 C        -0.470246         0.777245         0.579604
 C         0.012677         0.317634        -0.781117
 O         1.162230        -0.018598        -0.994423
 C        -1.892224         3.088812         0.663782
 H        -4.251360         4.912871         0.299381
 H        -4.109705         2.734238         0.950491
 H        -2.140195         3.724417         3.033999
 H        -1.256420         1.369561         2.916527
 H        -3.054904         0.922000         2.768164
 H        -2.499519         0.840840         0.060401
 H         0.340718         1.452737         0.980112
 H        -0.467304        -0.164967         1.136401
 H        -0.785221         0.121240        -1.570305
 H        -1.389939         3.792279         0.079250
