19
Iteration:  1097charge 0 multiplicity 1
 O        -3.622206         4.696417         1.672973
 C        -3.194124         3.575232         0.941927
 C        -2.827258         2.436409         1.780557
 C        -2.406626         1.232151         0.964394
 C        -1.203215         2.031954         0.292155
 C         0.179846         1.527702         0.587627
 C         0.387060         0.339379        -0.388558
 O        -0.252812        -0.726957        -0.238298
 C        -1.682464         3.315516         1.050408
 H        -3.273260         5.499467         1.209508
 H        -3.689104         3.302341         0.031801
 H        -3.030352         2.640728         2.825061
 H        -2.038354         0.322991         1.506386
 H        -3.149350         0.890305         0.172893
 H        -1.499707         2.106068        -0.705273
 H         0.832598         2.377001         0.519409
 H         0.232111         1.054358         1.578914
 H         1.182769         0.437658        -1.183889
 H        -0.952870         3.925954         1.580034
