19
Iteration:  3691
 O        -3.547237         4.715257         2.037182
 C        -3.053715         3.821469         1.082139
 C        -2.837977         2.452141         1.651592
 C        -2.516812         1.499806         0.501953
 C        -1.224610         2.325773         0.108583
 C        -0.082731         1.349937         0.263130
 C        -0.086550        -0.019642        -0.429391
 O         0.299936        -1.019171         0.083528
 C        -1.620796         3.290766         1.277260
 H        -3.275516         5.656390         1.855634
 H        -3.359761         4.059717         0.089121
 H        -2.999957         2.211110         2.665601
 H        -2.475766         0.514974         0.795373
 H        -3.284681         1.562562        -0.277572
 H        -1.216576         2.770776        -0.870211
 H         0.811907         1.898281        -0.118356
 H         0.016338         1.199880         1.274605
 H        -0.602299         0.065793        -1.524235
 H        -0.903018         3.835862         1.969253
