19
Iteration:  2189
 O        -3.581733         4.533958         0.771865
 C        -3.451237         3.235319         1.068535
 C        -2.407315         2.980521         2.124789
 C        -2.181790         1.511576         2.377595
 C        -1.552708         1.356665         0.912423
 C        -0.031574         1.019072         0.914201
 C         0.356685         0.976993        -0.579867
 O         0.138896        -0.028914        -1.207642
 C        -1.962771         2.763986         0.576153
 H        -3.738214         4.839130        -0.159984
 H        -4.225020         2.613252         0.800359
 H        -2.114097         3.950730         2.640380
 H        -1.401177         1.120444         3.207974
 H        -3.115693         0.880686         2.449094
 H        -2.040987         0.520235         0.444647
 H         0.559381         1.824226         1.373118
 H         0.147922         0.154087         1.430165
 H         0.729588         1.988501        -1.021977
 H        -1.280838         3.483072         0.259329
