19
Iteration:  2877charge 0 multiplicity 1
 O        -3.809172         4.740502         1.058707
 C        -3.416493         3.414471         1.046952
 C        -2.447602         3.014034         2.240007
 C        -2.242588         1.469905         2.307150
 C        -1.697136         1.468361         0.788129
 C        -0.261313         1.081331         0.596569
 C         0.165507         0.522586        -0.786527
 O         0.951521        -0.359530        -1.102059
 C        -1.962939         3.026140         0.801430
 H        -3.752881         5.232399         0.188697
 H        -4.128310         2.560241         0.785742
 H        -2.037702         3.712623         2.891145
 H        -1.519085         1.201277         3.098429
 H        -3.168117         0.946881         2.276451
 H        -2.327179         0.835324         0.091171
 H         0.430567         1.901882         0.705564
 H         0.103397         0.437692         1.291434
 H        -0.465637         0.945906        -1.614562
 H        -1.373840         3.750032         0.247786
