19
Iteration:   871
 O        -3.391854         4.793600         1.934075
 C        -3.150678         3.790603         0.991272
 C        -3.111620         2.471485         1.574554
 C        -2.729091         1.443408         0.545911
 C        -1.388285         2.183274         0.137056
 C        -0.103764         1.366287         0.430631
 C        -0.051421        -0.016806        -0.054544
 O         0.880612        -0.832150        -0.180572
 C        -1.736598         3.221596         1.229585
 H        -3.143396         5.674371         1.658681
 H        -3.595586         3.856690        -0.009058
 H        -3.464233         2.168192         2.505597
 H        -2.670766         0.503281         1.046223
 H        -3.594237         1.358850        -0.221976
 H        -1.239265         2.431180        -0.909378
 H         0.791607         1.814839        -0.060563
 H         0.134331         1.458343         1.494939
 H        -0.955992        -0.381879        -0.583834
 H        -1.127499         3.782235         2.010496
