19
Iteration:  2343charge 0 multiplicity 1
 O        -3.600430         4.315866         0.520616
 C        -3.242896         3.041394         0.875159
 C        -2.344709         3.023944         2.018812
 C        -2.071084         1.649722         2.527539
 C        -1.504591         1.221091         1.173583
 C        -0.024336         0.852353         1.096041
 C         0.372158         0.577549        -0.393359
 O        -0.305709         1.022258        -1.302281
 C        -1.867323         2.593327         0.471824
 H        -3.835277         4.411898        -0.402135
 H        -4.047353         2.343445         0.844792
 H        -2.156861         3.926178         2.584698
 H        -1.447513         1.663817         3.484504
 H        -2.987669         1.167076         2.872489
 H        -2.025879         0.475733         0.624845
 H         0.631600         1.773197         1.392258
 H         0.209754         0.015545         1.821042
 H         1.143872        -0.201082        -0.553846
 H        -1.138808         3.117548        -0.232849
