19
Iteration:  3838
 O        -3.136099         4.998183         1.806270
 C        -2.877204         3.907553         0.978063
 C        -3.081618         2.597611         1.654795
 C        -3.030520         1.489906         0.521941
 C        -1.526486         1.879631         0.310689
 C        -0.543736         0.844816         0.883546
 C        -0.091578        -0.120598        -0.272724
 O         1.104142        -0.377361        -0.540472
 C        -1.645563         3.076682         1.363494
 H        -2.611222         5.746873         1.438908
 H        -3.257980         4.071755        -0.079050
 H        -3.678719         2.447946         2.592452
 H        -3.184631         0.426289         0.978807
 H        -3.635060         1.761116        -0.365413
 H        -1.258204         2.327303        -0.679136
 H         0.350824         1.227650         1.275263
 H        -1.123662         0.356380         1.639493
 H        -0.941990        -0.306145        -1.037794
 H        -0.873374         3.485637         1.934188
