19
Iteration:   352charge 0 multiplicity 1
 O        -3.662291         4.907184         1.476268
 C        -2.745492         3.892117         0.936944
 C        -3.083290         2.470530         1.202225
 C        -2.461548         1.512911         0.176704
 C        -1.051142         2.023492         0.671261
 C         0.084483         1.013768         1.084495
 C         0.487685        -0.009102         0.078124
 O        -0.364269        -0.419224        -0.683879
 C        -1.816139         2.955078         1.822938
 H        -3.148116         5.715678         1.709272
 H        -2.420539         4.066132        -0.052060
 H        -4.003568         2.257934         1.697097
 H        -2.553173         0.354556         0.208707
 H        -2.627980         1.917305        -0.896607
 H        -0.726902         2.742943        -0.050644
 H         1.010951         1.584031         1.453862
 H        -0.289359         0.311003         1.968119
 H         1.600553        -0.293188        -0.026917
 H        -1.744388         2.814423         2.851559
