19
Iteration:  4422
 O        -3.397385         4.842300         2.109355
 C        -2.570529         4.230877         1.227581
 C        -3.085630         2.770914         0.802270
 C        -2.232070         2.205610        -0.320444
 C        -1.112145         2.049981         0.588600
 C        -0.928666         0.579822         0.864737
 C         0.054750         0.006469        -0.235991
 O         0.476036        -1.097141        -0.130695
 C        -1.878928         2.854912         1.635195
 H        -2.949320         5.540644         2.682391
 H        -2.082464         4.865573         0.515484
 H        -4.104701         2.632660         1.152416
 H        -2.675648         1.321866        -0.815804
 H        -2.222662         2.785026        -1.220745
 H        -0.151395         2.565751         0.146617
 H        -0.596177         0.320789         1.888037
 H        -1.956906         0.129846         0.915914
 H         0.100372         0.596132        -1.157632
 H        -1.891747         2.496269         2.736111
