19
Iteration:  1291charge 0 multiplicity 1
 O        -3.408117         4.787423         1.696088
 C        -3.208864         3.582494         0.994761
 C        -2.767626         2.450854         1.897656
 C        -2.605470         1.229103         1.099418
 C        -1.493337         1.900523         0.169650
 C        -0.027294         1.561410         0.476368
 C         0.574456         0.322339        -0.138004
 O         0.001655        -0.734488        -0.493978
 C        -1.788425         3.283253         0.996235
 H        -3.481406         5.416873         0.923877
 H        -3.870935         3.456019         0.054857
 H        -2.803725         2.594453         3.015981
 H        -2.209279         0.271320         1.614359
 H        -3.431954         0.915263         0.529543
 H        -1.502431         1.841210        -0.972947
 H         0.736270         2.471236         0.427782
 H        -0.088587         1.393216         1.570807
 H         1.704935         0.269118        -0.235560
 H        -1.086445         4.132766         1.109358
