19
Iteration:  3894charge 0 multiplicity 1
 O        -2.991830         5.057188         1.586931
 C        -2.674009         3.837039         0.877031
 C        -3.316690         2.671586         1.568606
 C        -3.107654         1.476956         0.672216
 C        -1.592103         1.712509         0.548430
 C        -0.492884         0.706625         0.981243
 C        -0.074939        -0.041636        -0.254972
 O         1.059865        -0.027844        -0.761875
 C        -1.747266         2.909538         1.533292
 H        -2.134866         5.572238         1.604263
 H        -2.657314         4.118410        -0.231886
 H        -3.990171         2.653758         2.359682
 H        -3.384059         0.384436         1.104339
 H        -3.688360         1.597610        -0.270709
 H        -1.140245         2.193895        -0.397360
 H         0.302699         1.147330         1.512615
 H        -0.843890        -0.110124         1.605539
 H        -0.706258        -0.795949        -0.785617
 H        -1.070199         3.100568         2.401195
