19
Iteration:  4974charge 0 multiplicity 1
 O        -3.678589         4.516798         1.859266
 C        -2.474896         4.009136         1.234785
 C        -2.644012         2.889125         0.281118
 C        -1.146766         2.616600        -0.241613
 C        -0.749060         2.067264         1.150577
 C        -0.583598         0.570195         1.273706
 C        -0.676139        -0.565165         0.235804
 O        -0.500543        -0.267674        -0.956794
 C        -2.122704         2.581149         1.758992
 H        -3.388715         4.680797         2.735255
 H        -1.633858         4.696700         1.201241
 H        -3.505786         2.720849        -0.391250
 H        -1.129379         1.993416        -1.136812
 H        -0.602632         3.483570        -0.523195
 H         0.229630         2.634921         1.480695
 H         0.297249         0.539170         1.909180
 H        -1.397857         0.216055         1.952176
 H        -0.929326        -1.512382         0.720967
 H        -2.663440         2.120695         2.495167
