19
Iteration:  2879charge 0 multiplicity 1
 O        -3.818496         4.739034         1.067799
 C        -3.427689         3.417114         1.052939
 C        -2.428231         3.028386         2.220864
 C        -2.229168         1.469276         2.294214
 C        -1.692096         1.491633         0.782464
 C        -0.275116         1.060093         0.594806
 C         0.152661         0.513998        -0.772912
 O         0.958401        -0.349203        -1.099002
 C        -1.951926         3.008463         0.798436
 H        -3.760154         5.180833         0.161262
 H        -4.141061         2.606381         0.768451
 H        -2.056375         3.754113         3.020360
 H        -1.589423         1.163033         3.063668
 H        -3.247999         0.909682         2.292162
 H        -2.300089         0.780155         0.116009
 H         0.446687         1.960798         0.734523
 H         0.113299         0.409119         1.263820
 H        -0.480149         0.916865        -1.628363
 H        -1.315792         3.796350         0.249965
