19
Iteration:  4185
 O        -3.475110         4.656428         1.905510
 C        -2.688328         3.934172         1.034135
 C        -3.042493         2.531932         0.993688
 C        -2.319312         1.842829        -0.051527
 C        -0.918936         2.215656         0.614970
 C        -0.254750         0.972027         1.043812
 C         0.295079         0.054521        -0.063909
 O        -0.500678        -0.729371        -0.573654
 C        -1.741737         2.942503         1.708045
 H        -3.001859         5.359269         2.438346
 H        -2.247529         4.532613         0.195025
 H        -4.006506         2.164651         1.413732
 H        -2.485854         0.831929        -0.044688
 H        -2.433733         2.127041        -1.110057
 H        -0.193103         2.948032         0.014417
 H         0.671085         1.157309         1.615842
 H        -0.929556         0.318670         1.585627
 H         1.357057         0.032825        -0.305298
 H        -1.425201         3.337014         2.759794
