19
Iteration:  3429
 O        -3.460100         4.876124         1.337093
 C        -3.113204         3.531346         0.890649
 C        -2.660458         2.707343         2.123135
 C        -2.557996         1.229900         1.679038
 C        -1.367656         1.703514         0.583714
 C         0.034362         1.169905         0.685360
 C         0.368094         0.115035        -0.243814
 O        -0.261415        -0.123372        -1.246884
 C        -1.621945         3.109398         1.094640
 H        -3.297250         5.458564         0.611633
 H        -3.745314         3.094471         0.092895
 H        -2.840567         3.135331         3.109216
 H        -2.286507         0.405937         2.329798
 H        -3.434654         0.898667         1.121611
 H        -1.729808         1.751265        -0.492755
 H         0.850799         1.870981         0.417158
 H         0.279435         0.724434         1.757385
 H         1.376000        -0.475311        -0.115702
 H        -0.944428         3.887056         1.167219
