19
Iteration:   592
 O        -3.068194         4.856617         1.600505
 C        -2.891577         3.813866         0.811960
 C        -3.317724         2.594564         1.475752
 C        -2.925376         1.349925         0.534192
 C        -1.425710         1.773546         0.588366
 C        -0.216122         0.881052         1.147088
 C        -0.055849        -0.069991         0.014861
 O         0.856767         0.034772        -0.773611
 C        -1.808375         3.025805         1.384965
 H        -3.003514         5.654235         1.094609
 H        -3.050926         3.864434        -0.338061
 H        -3.884518         2.686711         2.446433
 H        -3.205127         0.417391         1.141762
 H        -3.352593         1.410450        -0.452163
 H        -1.237353         2.109295        -0.557740
 H         0.735573         1.442822         1.010632
 H        -0.337837         0.612759         2.152803
 H        -0.833516        -0.823169        -0.113331
 H        -1.053984         3.531318         2.114493
