19
Iteration:  1554charge 0 multiplicity 1
 O        -3.487394         4.819080         1.060003
 C        -3.252797         3.429265         0.921852
 C        -2.728833         2.737678         2.101232
 C        -2.451443         1.220257         1.800974
 C        -1.440236         1.685549         0.670594
 C         0.219576         1.181531         0.788011
 C         0.537719         0.487934        -0.515793
 O        -0.243141        -0.349029        -0.970910
 C        -1.809610         3.146511         1.010547
 H        -3.009181         5.291608         0.333546
 H        -3.842784         2.801575         0.199471
 H        -2.911418         3.186924         3.061997
 H        -2.047940         0.598626         2.695811
 H        -3.312884         0.603698         1.463165
 H        -1.890733         1.622525        -0.310545
 H         0.793032         2.010043         1.202677
 H         0.253155         0.523029         1.660528
 H         1.540949         0.746452        -0.997214
 H        -1.120001         4.013956         1.127426
