19
Iteration:  1721charge 0 multiplicity 1
 O        -3.333364         4.669035         0.717359
 C        -3.191067         3.300788         0.876714
 C        -2.327344         3.051441         2.098437
 C        -2.386885         1.465847         2.373105
 C        -1.759547         1.204381         0.942755
 C        -0.301369         0.670114         1.066308
 C         0.398236         0.395732        -0.343533
 O        -0.002902         0.772212        -1.410828
 C        -1.795196         2.732851         0.629957
 H        -3.591072         4.929046        -0.195631
 H        -4.166449         2.775073         0.757331
 H        -1.944707         3.788156         2.777771
 H        -1.635119         1.173390         3.125651
 H        -3.425920         1.084961         2.677924
 H        -2.331928         0.600162         0.199754
 H         0.341832         1.286741         1.794257
 H        -0.160099        -0.395271         1.469700
 H         1.464424         0.070053        -0.226306
 H        -1.143283         3.391244         0.155085
