19
Iteration:   385charge 0 multiplicity 1
 O        -3.467821         4.791648         1.508854
 C        -2.764282         3.768580         0.818188
 C        -3.104665         2.338949         1.223462
 C        -2.422161         1.457893         0.278910
 C        -1.074294         2.149416         0.653031
 C        -0.144410         1.136209         1.206338
 C         0.299082         0.006515         0.145182
 O        -0.282152        -0.366004        -0.841937
 C        -1.744298         3.116870         1.732989
 H        -2.844911         5.215235         2.161853
 H        -2.596575         3.938101        -0.224151
 H        -4.097555         2.291139         1.606240
 H        -2.351410         0.316025         0.506398
 H        -2.684483         1.550876        -0.843091
 H        -0.524142         2.663421        -0.156436
 H         0.833937         1.542050         1.686886
 H        -0.658433         0.467221         2.052833
 H         1.429913        -0.215975         0.340846
 H        -1.395244         3.313938         2.704916
