19
Iteration:  3933
 O        -2.903629         5.108699         1.513934
 C        -2.529355         3.954171         0.905223
 C        -3.409447         2.648024         1.380411
 C        -3.082139         1.364381         0.740295
 C        -1.585761         1.662165         0.679969
 C        -0.506159         0.634998         0.992053
 C        -0.076239        -0.149674        -0.260104
 O         0.996165         0.195155        -0.857612
 C        -1.835405         2.845645         1.660843
 H        -2.234628         5.760452         1.575457
 H        -2.188930         3.955715        -0.095980
 H        -4.397300         2.567349         1.995369
 H        -3.320089         0.583901         1.388145
 H        -3.490977         1.269742        -0.321152
 H        -1.482804         1.988050        -0.316246
 H         0.398156         1.318480         1.267361
 H        -0.725868        -0.128552         1.811585
 H        -0.652346        -1.061988        -0.370627
 H        -1.380845         2.980259         2.586889
