19
Iteration:  2865
 O        -3.758132         4.744722         1.033663
 C        -3.357403         3.347183         1.083647
 C        -2.544760         2.980032         2.248388
 C        -2.274052         1.490803         2.318003
 C        -1.744413         1.473068         0.835361
 C        -0.118612         1.122508         0.586175
 C         0.163486         0.563801        -0.856649
 O         0.898006        -0.388333        -1.082101
 C        -1.994454         3.019139         0.738032
 H        -3.524879         4.997625         0.151586
 H        -4.317713         2.783298         0.797745
 H        -2.319319         3.677176         2.957967
 H        -1.419010         1.192421         3.031951
 H        -3.003148         0.837782         2.723701
 H        -2.425062         0.995922         0.096263
 H         0.344417         2.054836         0.721575
 H         0.126552         0.425020         1.351104
 H        -0.247382         1.222781        -1.671390
 H        -1.322849         3.731118         0.367697
