19
Iteration:  3400charge 0 multiplicity 1
 O        -3.438360         4.919979         1.201188
 C        -3.083760         3.565694         0.956013
 C        -2.735083         2.699173         2.143335
 C        -2.603703         1.272274         1.827130
 C        -1.466776         1.678826         0.741204
 C        -0.030640         1.061904         0.736087
 C         0.452550         0.171595        -0.432154
 O        -0.144329        -0.229486        -1.398729
 C        -1.646064         3.189780         1.169351
 H        -3.363369         5.460707         0.366955
 H        -3.642100         3.251863         0.008370
 H        -2.712418         2.915618         3.257140
 H        -2.127361         0.659455         2.574542
 H        -3.523074         0.674142         1.325191
 H        -1.907200         1.732022        -0.288254
 H         0.741525         1.869035         0.670605
 H         0.245363         0.479943         1.592196
 H         1.505289        -0.114083        -0.295264
 H        -0.872843         3.943408         1.443168
