19
Iteration:  4310
 O        -3.516052         4.544012         2.204994
 C        -2.566049         3.987122         1.304963
 C        -3.118621         2.763387         0.635679
 C        -2.234913         2.265593        -0.530609
 C        -0.888973         2.282227         0.407942
 C        -0.206449         1.026520         0.893564
 C         0.038354         0.003910        -0.147123
 O        -0.249660        -1.141204         0.062231
 C        -1.870959         2.749287         1.634931
 H        -3.086215         4.784968         3.047313
 H        -2.158541         4.730693         0.640432
 H        -4.179412         2.670040         0.855700
 H        -2.651302         1.184029        -0.858211
 H        -2.170333         2.841660        -1.473269
 H        -0.288800         3.219416         0.037606
 H         0.765202         1.480095         1.165014
 H        -0.819155         0.530352         1.718360
 H         0.450222         0.396806        -1.157096
 H        -1.780745         2.329055         2.607245
