19
Iteration:  4511charge 0 multiplicity 1
 O        -3.083362         5.022695         2.026010
 C        -2.314208         4.104984         1.389811
 C        -3.133416         3.151390         0.532863
 C        -2.554274         2.007802        -0.352394
 C        -1.422005         1.816314         0.662923
 C        -0.764866         0.523639         1.037396
 C        -0.199552        -0.156280        -0.167691
 O         0.928922        -0.683220        -0.306115
 C        -2.282936         2.628103         1.667763
 H        -2.778485         5.132932         2.981605
 H        -1.407628         4.376707         0.985151
 H        -4.175947         3.367340         0.585788
 H        -3.126580         1.095888        -0.318696
 H        -2.102373         2.096274        -1.301635
 H        -0.550450         2.586505         0.577621
 H        -0.116983         0.466305         1.928051
 H        -1.708580         0.050477         1.346151
 H        -1.088053        -0.302650        -0.917379
 H        -2.709556         2.370337         2.596469
