19
Iteration:  3080charge 0 multiplicity 1
 O        -3.161361         4.700904         0.588178
 C        -3.229114         3.309558         1.015429
 C        -2.274686         2.987369         2.107290
 C        -2.283695         1.493307         2.494337
 C        -1.856658         1.098829         1.086071
 C        -0.570859         0.410869         0.809645
 C        -0.235010         0.528754        -0.621864
 O         0.706972         1.125143        -1.100286
 C        -1.880624         2.599115         0.642189
 H        -2.998118         4.668568        -0.405247
 H        -4.214083         2.856651         0.795848
 H        -1.757258         3.755238         2.649804
 H        -1.660594         1.243525         3.321680
 H        -3.267121         1.047678         2.734706
 H        -2.702541         0.556457         0.704864
 H         0.259200         0.929851         1.472266
 H        -0.707451        -0.749413         1.170844
 H        -0.776017        -0.128855        -1.370222
 H        -1.238229         3.103021        -0.099342
