19
Iteration:  1287
 O        -3.407936         4.803069         1.669460
 C        -3.213639         3.568382         1.001862
 C        -2.801979         2.450688         1.934950
 C        -2.558023         1.204252         1.057903
 C        -1.489252         1.957110         0.196377
 C         0.000733         1.570523         0.517593
 C         0.566163         0.314791        -0.170881
 O        -0.013784        -0.738183        -0.488415
 C        -1.786880         3.257427         0.970079
 H        -3.447846         5.536696         1.043227
 H        -3.888457         3.362907         0.175518
 H        -2.792337         2.572126         2.982187
 H        -2.234650         0.352878         1.654682
 H        -3.450452         0.911564         0.452911
 H        -1.700379         1.779502        -0.843560
 H         0.709536         2.351322         0.455667
 H        -0.039994         1.209595         1.551841
 H         1.746564         0.425591        -0.252288
 H        -1.094683         4.150686         1.011608
