19
Iteration:  1185
 O        -3.777386         4.773473         1.410033
 C        -3.133705         3.608975         0.937249
 C        -2.838077         2.386881         1.831670
 C        -2.299823         1.260046         1.118115
 C        -1.195290         2.040594         0.519708
 C         0.261590         1.461062         0.434087
 C         0.374481         0.268463        -0.447461
 O        -0.314028        -0.703744        -0.419358
 C        -1.637998         3.290740         1.417523
 H        -3.750310         5.473497         0.700174
 H        -3.507129         3.508732        -0.056284
 H        -3.221454         2.301910         2.933088
 H        -1.951398         0.568214         1.948473
 H        -2.914474         0.598720         0.355278
 H        -1.345878         2.320747        -0.581375
 H         1.006269         2.212149         0.173640
 H         0.514149         1.136778         1.494120
 H         1.004947         0.460030        -1.250332
 H        -1.097485         4.071614         1.926134
