19
Iteration:   334
 O        -3.615593         4.915115         1.578045
 C        -2.763941         3.904044         1.036516
 C        -3.215104         2.464454         1.025262
 C        -2.416354         1.493486         0.136526
 C        -1.029293         2.050688         0.709347
 C         0.096331         1.100544         1.162964
 C         0.479855         0.031304         0.015974
 O        -0.369093        -0.524753        -0.679805
 C        -1.836435         2.899773         1.743367
 H        -3.312228         5.781699         1.225284
 H        -2.224818         4.371173         0.173401
 H        -4.139714         2.221688         1.560266
 H        -2.586403         0.582606         0.666599
 H        -2.531136         1.398263        -0.899894
 H        -0.458645         2.635613        -0.052395
 H         0.919677         1.667071         1.438076
 H        -0.167586         0.469716         1.962406
 H         1.527673        -0.312616         0.052409
 H        -1.408415         3.186002         2.756858
