19
Iteration:  4831
 O        -3.260035         4.885043         1.865239
 C        -2.352159         3.998796         1.304891
 C        -2.829905         2.908561         0.300762
 C        -1.547316         2.381692        -0.295297
 C        -1.086562         1.953643         1.159554
 C        -0.981286         0.369143         1.249204
 C        -0.103734        -0.439789         0.183838
 O        -0.143827        -0.162241        -0.958440
 C        -2.424113         2.468063         1.787606
 H        -3.017841         5.175526         2.753524
 H        -1.296099         4.277400         1.186815
 H        -3.810143         2.823932        -0.206409
 H        -1.593221         1.532885        -0.937016
 H        -1.060987         3.248984        -0.834668
 H        -0.259538         2.384616         1.596873
 H        -0.493025         0.225201         2.246693
 H        -1.918725        -0.096917         1.341526
 H         0.542131        -1.274208         0.686130
 H        -3.065881         2.051549         2.574745
