19
Iteration:  3412charge 0 multiplicity 1
 O        -3.458338         4.879084         1.261033
 C        -3.069213         3.585996         1.003895
 C        -2.783898         2.768499         2.171186
 C        -2.566569         1.311247         1.655281
 C        -1.459521         1.642103         0.691290
 C         0.031734         1.147511         0.803534
 C         0.482720         0.099037        -0.403622
 O        -0.215967        -0.208244        -1.390630
 C        -1.612011         3.125957         1.132643
 H        -3.370022         5.334541         0.445299
 H        -3.622397         2.980935         0.230272
 H        -3.066100         3.089232         3.218484
 H        -2.252897         0.755943         2.546320
 H        -3.570153         0.808922         1.325565
 H        -1.680378         1.339735        -0.339713
 H         0.654906         2.050419         0.589362
 H         0.371003         0.770459         1.714750
 H         1.466622        -0.344545        -0.306165
 H        -0.761655         3.908617         1.185775
