19
Iteration:  2519charge 0 multiplicity 1
 O        -3.969432         4.196762         0.543304
 C        -3.219720         3.122009         0.914794
 C        -2.234395         3.215348         2.030292
 C        -1.950612         1.823501         2.583231
 C        -1.608977         1.266097         1.187390
 C        -0.239854         0.558361         0.949431
 C         0.271969         0.362246        -0.453929
 O         0.154061         1.155039        -1.343743
 C        -1.738530         2.732266         0.616882
 H        -3.979725         4.183202        -0.423646
 H        -3.975160         2.218168         1.116902
 H        -1.989151         4.233128         2.504452
 H        -1.044065         1.608160         3.241246
 H        -2.833630         1.331260         2.918472
 H        -2.500265         0.688941         0.744403
 H         0.505804         0.854885         1.626062
 H        -0.331819        -0.529815         1.250749
 H         0.678976        -0.622894        -0.680301
 H        -1.180973         3.075945        -0.261520
