19
Iteration:   889charge 0 multiplicity 1
 O        -3.556313         4.832289         1.952993
 C        -3.168712         3.837899         1.011892
 C        -3.026406         2.504660         1.659911
 C        -2.694682         1.480647         0.489145
 C        -1.328480         2.223936         0.168054
 C        -0.051670         1.375698         0.246609
 C        -0.086141        -0.156290        -0.209896
 O         0.904735        -0.875454        -0.059124
 C        -1.732261         3.194859         1.312645
 H        -3.359743         5.664182         1.533564
 H        -3.549562         4.113199        -0.042327
 H        -3.581052         2.402624         2.647709
 H        -2.359719         0.546167         0.959007
 H        -3.337607         1.268479        -0.301499
 H        -1.476646         2.826060        -0.738533
 H         0.943610         1.828450        -0.098540
 H        -0.000299         0.998477         1.324156
 H        -1.072079        -0.740595        -0.376129
 H        -1.026258         3.813689         1.894135
