19
Iteration:  3632charge 0 multiplicity 1
 O        -3.320908         4.669096         2.014884
 C        -3.090427         3.656248         1.057359
 C        -2.778799         2.393647         1.686766
 C        -2.509336         1.339953         0.571415
 C        -1.308297         2.171354         0.045953
 C        -0.016171         1.483956         0.420176
 C         0.215019         0.284145        -0.307052
 O        -0.251216        -0.760292         0.004353
 C        -1.589109         3.157945         1.051290
 H        -3.009354         5.468357         1.637944
 H        -3.709720         3.699818         0.133247
 H        -3.422988         2.189861         2.587872
 H        -2.132025         0.522018         1.323600
 H        -3.325580         0.995233        -0.034238
 H        -1.439378         2.549903        -1.074310
 H         0.774220         2.272742         0.325717
 H        -0.093053         1.235907         1.599022
 H         0.930505         0.451453        -1.317671
 H        -0.829732         3.789971         1.446989
