19
Iteration:  4010charge 0 multiplicity 1
 O        -3.096390         5.043326         1.529702
 C        -2.539906         3.811026         0.960506
 C        -3.225633         2.581617         1.426490
 C        -2.872430         1.490654         0.504257
 C        -1.332921         1.781357         0.508214
 C        -0.559298         0.598150         1.149563
 C        -0.137812        -0.247325        -0.020539
 O         0.620734         0.335250        -0.859229
 C        -1.655564         2.839670         1.562001
 H        -2.364631         5.696689         1.413264
 H        -2.508330         3.847901        -0.125763
 H        -4.022929         2.519179         2.160397
 H        -3.147651         0.553340         0.958565
 H        -3.327171         1.720514        -0.613608
 H        -0.891371         2.168758        -0.348302
 H         0.394830         0.965595         1.741627
 H        -1.187198        -0.009444         1.885791
 H        -0.579945        -1.283576        -0.170828
 H        -1.174604         3.114288         2.492738
