19
Iteration:  2907
 O        -3.804268         4.652754         1.134277
 C        -3.311535         3.383588         1.075365
 C        -2.374923         3.048938         2.214637
 C        -2.251296         1.532151         2.188566
 C        -1.704923         1.561829         0.666224
 C        -0.340234         0.936925         0.627752
 C        -0.003217         0.443883        -0.744145
 O         1.011451        -0.180884        -0.983256
 C        -1.910715         3.099374         0.679560
 H        -4.192449         4.895834         0.274046
 H        -4.048207         2.584660         0.899236
 H        -1.893358         3.636855         2.930425
 H        -1.480131         1.215072         3.020246
 H        -3.100509         0.921799         2.428756
 H        -2.203263         0.905802        -0.037066
 H         0.498639         1.542951         0.944589
 H        -0.151729        -0.120091         1.268490
 H        -0.762937         0.508176        -1.567136
 H        -1.525481         3.872850         0.119955
