19
Iteration:  1296
 O        -3.420548         4.777510         1.722199
 C        -3.216943         3.597812         0.980946
 C        -2.720530         2.487336         1.868306
 C        -2.632948         1.225599         1.137375
 C        -1.487768         1.855890         0.135383
 C        -0.055555         1.554087         0.443685
 C         0.582667         0.296834        -0.101765
 O         0.022313        -0.703737        -0.494271
 C        -1.773257         3.278937         0.992679
 H        -3.525134         5.324292         0.936699
 H        -3.770084         3.536503         0.090037
 H        -2.876935         2.569042         2.912475
 H        -2.223258         0.349727         1.525351
 H        -3.588057         0.886267         0.562775
 H        -1.461164         1.987622        -0.960982
 H         0.548371         2.397784         0.302094
 H        -0.024389         1.562007         1.588948
 H         1.664833         0.184057        -0.177445
 H        -1.053978         4.032383         1.318614
