19
Iteration:  3990charge 0 multiplicity 1
 O        -2.958835         5.069004         1.467321
 C        -2.680848         3.841732         0.838146
 C        -3.222466         2.605242         1.507612
 C        -3.005624         1.400147         0.434966
 C        -1.416666         1.711991         0.702643
 C        -0.495615         0.558060         1.122920
 C        -0.137610        -0.191417        -0.091866
 O         0.703169         0.345865        -0.861233
 C        -1.688627         2.873159         1.678324
 H        -2.242002         5.750066         1.650539
 H        -2.540323         3.981603        -0.198905
 H        -3.932612         2.681496         2.281137
 H        -3.187187         0.372481         0.606176
 H        -3.347406         1.619406        -0.656155
 H        -1.008763         2.094696        -0.204637
 H         0.365894         1.132404         1.569939
 H        -0.904126        -0.117248         1.947026
 H        -0.550231        -1.218809        -0.424138
 H        -1.094707         3.091171         2.626431
