19
Iteration:  2934charge 0 multiplicity 1
 O        -3.784262         4.721573         1.142281
 C        -3.311705         3.383650         1.076191
 C        -2.343465         3.047277         2.143846
 C        -2.188058         1.544002         2.268313
 C        -1.853860         1.537713         0.686989
 C        -0.478945         0.816619         0.601711
 C         0.010372         0.328147        -0.759458
 O         1.143173        -0.043821        -0.999722
 C        -1.882987         3.105027         0.674336
 H        -4.281818         4.900465         0.343427
 H        -4.113468         2.562315         1.015258
 H        -2.280690         3.821431         3.039845
 H        -1.421435         1.297073         2.900898
 H        -2.987297         0.918201         2.721728
 H        -2.391959         0.840302         0.040049
 H         0.376055         1.411122         1.027869
 H        -0.399480        -0.144131         1.064651
 H        -0.714543         0.150433        -1.566535
 H        -1.244320         3.849182         0.019678
