19
Iteration:  2424charge 0 multiplicity 1
 O        -3.720504         4.333187         0.571407
 C        -3.328867         3.110715         1.086883
 C        -2.232629         3.143730         2.013297
 C        -2.017107         1.770152         2.616077
 C        -1.798384         1.188844         1.216736
 C        -0.237586         0.693704         0.963433
 C         0.389008         0.452393        -0.453659
 O         0.344699         1.064867        -1.495987
 C        -2.122696         2.524396         0.465506
 H        -3.859617         4.293966        -0.357260
 H        -4.090559         2.403680         1.312670
 H        -1.755026         4.151347         2.317906
 H        -1.036317         1.854690         3.292936
 H        -2.941068         1.498840         3.270440
 H        -2.408372         0.320100         0.957291
 H         0.567196         1.522766         1.320712
 H        -0.019145        -0.084824         1.714681
 H         1.069629        -0.352981        -0.400261
 H        -1.669130         3.033499        -0.377225
