19
Iteration:  2370charge 0 multiplicity 1
 O        -3.598919         4.374384         0.465874
 C        -3.403322         3.096440         1.043560
 C        -2.206948         2.996821         1.896918
 C        -2.000764         1.608195         2.509410
 C        -1.573425         1.133472         1.083046
 C        -0.023137         0.913004         1.087588
 C         0.337142         0.511521        -0.331045
 O        -0.141493         1.097363        -1.296588
 C        -1.973567         2.539444         0.533691
 H        -3.868570         4.332620        -0.441337
 H        -4.347564         2.528619         1.247593
 H        -1.981425         3.921597         2.494014
 H        -1.385298         1.534194         3.421065
 H        -2.986621         1.300805         2.971637
 H        -2.024481         0.308578         0.473901
 H         0.499954         1.810115         1.240384
 H         0.218892         0.270083         1.914235
 H         0.991075        -0.473335        -0.451937
 H        -1.479391         2.951356        -0.293500
