19
Iteration:  2412charge 0 multiplicity 1
 O        -3.671018         4.354578         0.528857
 C        -3.386807         3.038799         1.079282
 C        -2.110458         3.100592         1.922030
 C        -2.056881         1.762516         2.657022
 C        -1.739309         1.117629         1.178402
 C        -0.292508         0.822634         0.979013
 C         0.361193         0.497516        -0.408400
 O         0.278986         1.060243        -1.507207
 C        -2.044953         2.544699         0.568294
 H        -3.850598         4.152473        -0.425607
 H        -4.206596         2.453491         1.328771
 H        -1.819284         4.087405         2.357000
 H        -1.091343         1.544432         3.346837
 H        -2.915512         1.248828         3.204517
 H        -2.480584         0.387957         0.952819
 H         0.127361         1.874888         1.345527
 H         0.055285        -0.036404         1.601031
 H         1.007428        -0.330917        -0.310149
 H        -1.646856         2.987414        -0.298130
