19
Iteration:  4623
 O        -3.086568         4.863165         2.082064
 C        -2.278769         4.070375         1.136499
 C        -3.132196         2.929123         0.714438
 C        -2.408375         2.216372        -0.388602
 C        -1.257726         1.789494         0.554527
 C        -1.316707         0.269473         0.906830
 C        -0.310649        -0.489741         0.047424
 O         0.777989        -0.012640        -0.182166
 C        -1.823267         2.724867         1.629924
 H        -2.454669         5.282201         2.696215
 H        -1.810060         4.649427         0.391966
 H        -4.143871         2.762831         1.126804
 H        -2.760962         1.361529        -0.849875
 H        -2.073313         2.871796        -1.176790
 H        -0.205603         2.224742         0.227811
 H        -0.950875        -0.032348         1.954983
 H        -2.347193        -0.079823         0.807652
 H        -0.446012        -1.509654        -0.246147
 H        -1.836144         2.341688         2.694578
