19
Iteration:  3822charge 0 multiplicity 1
 O        -3.239703         4.949084         1.897886
 C        -2.849507         3.927742         0.962298
 C        -3.024417         2.608810         1.634544
 C        -3.101801         1.532928         0.528703
 C        -1.515214         1.961599         0.255145
 C        -0.453942         0.905715         0.768814
 C        -0.032702        -0.091215        -0.244758
 O         1.049897        -0.517984        -0.467311
 C        -1.659354         3.072352         1.276702
 H        -2.710976         5.803170         1.793552
 H        -3.033374         4.148714        -0.064830
 H        -3.526732         2.630662         2.602243
 H        -3.146465         0.542710         0.859408
 H        -3.883119         1.800350        -0.198934
 H        -1.269168         2.150260        -0.861482
 H         0.452692         1.539076         1.090624
 H        -0.729735         0.312762         1.695652
 H        -0.823372        -0.568816        -0.887615
 H        -0.941987         3.309811         2.132109
