19
Iteration:  4364
 O        -3.419694         4.648142         2.353139
 C        -2.736303         4.206344         1.292544
 C        -3.120728         2.816931         0.628014
 C        -2.264830         2.360532        -0.613702
 C        -0.955002         2.227613         0.419206
 C        -0.538856         0.807038         0.865402
 C         0.090598        -0.081678        -0.115533
 O         0.134409        -1.261837         0.054387
 C        -1.906045         2.798774         1.510524
 H        -2.754487         4.974964         2.959851
 H        -2.313281         4.957905         0.640177
 H        -3.978459         2.216827         0.954471
 H        -2.742340         1.366927        -0.884562
 H        -2.235731         3.184102        -1.278738
 H        -0.216825         3.052193         0.086898
 H         0.305585         0.948155         1.531847
 H        -1.324934         0.254810         1.462334
 H         0.425617         0.425308        -1.042336
 H        -1.756519         2.362614         2.462929
