19
Iteration:  3088
 O        -3.150086         4.672093         0.540733
 C        -3.250618         3.346821         0.992907
 C        -2.251002         2.942893         2.095926
 C        -2.231968         1.510000         2.532231
 C        -1.932432         1.099014         1.063131
 C        -0.539199         0.372630         0.787858
 C        -0.236599         0.466230        -0.651658
 O         0.658316         1.204490        -1.038813
 C        -1.845056         2.617969         0.710084
 H        -2.882653         4.817765        -0.394085
 H        -4.221566         2.784619         0.753450
 H        -1.898012         3.708778         2.695204
 H        -1.455879         1.259485         3.146630
 H        -3.248759         1.207422         2.849803
 H        -2.642415         0.474503         0.518211
 H         0.233435         0.889893         1.396825
 H        -0.762218        -0.698789         1.096618
 H        -0.823471        -0.225512        -1.307549
 H        -1.288869         3.123246         0.028602
