19
Iteration:  1473charge 0 multiplicity 1
 O        -3.748410         4.794933         1.363522
 C        -3.241081         3.530967         0.926066
 C        -2.685907         2.623739         2.012821
 C        -2.265268         1.226053         1.549691
 C        -1.325388         1.909459         0.442612
 C         0.172640         1.385767         0.526867
 C         0.413189         0.003998        -0.054167
 O        -0.181946        -0.463352        -0.981876
 C        -1.765858         3.326551         1.027140
 H        -3.453582         5.530316         0.811732
 H        -3.820604         3.126322         0.137961
 H        -2.810371         2.873084         3.112275
 H        -1.656746         0.707679         2.283280
 H        -3.174456         0.747325         1.183317
 H        -1.514717         1.932203        -0.629152
 H         0.636474         2.018258        -0.209329
 H         0.543426         1.502831         1.604240
 H         1.345939        -0.502683         0.312605
 H        -1.187647         4.257266         1.313706
