19
Iteration:  3836
 O        -3.146959         4.993030         1.821469
 C        -2.886120         3.922311         0.960515
 C        -3.059686         2.576136         1.624971
 C        -3.040206         1.505298         0.537512
 C        -1.535660         1.872382         0.307032
 C        -0.529505         0.855137         0.872360
 C        -0.101729        -0.130313        -0.267410
 O         1.116582        -0.394456        -0.536149
 C        -1.644988         3.085759         1.370227
 H        -2.636639         5.691773         1.456463
 H        -3.207319         4.060199        -0.064711
 H        -3.667556         2.460209         2.621708
 H        -3.210775         0.507624         0.907124
 H        -3.724723         1.774744        -0.264881
 H        -1.244760         2.384395        -0.724340
 H         0.396339         1.259767         1.277692
 H        -1.128419         0.418244         1.640058
 H        -0.959502        -0.247986        -1.009505
 H        -0.841581         3.456591         1.960481
