19
Iteration:  3911charge 0 multiplicity 1
 O        -2.990876         5.058888         1.541600
 C        -2.586152         3.881030         0.896070
 C        -3.265816         2.716550         1.460815
 C        -3.215750         1.390918         0.663387
 C        -1.564343         1.676844         0.608282
 C        -0.469556         0.677410         0.957040
 C        -0.048484        -0.104795        -0.202795
 O         1.052844         0.088766        -0.830437
 C        -1.800142         2.823986         1.642230
 H        -2.219143         5.676430         1.745703
 H        -2.461759         3.925880        -0.163182
 H        -3.955970         3.220077         2.266855
 H        -3.447097         0.689362         1.371238
 H        -3.705073         1.340128        -0.331113
 H        -1.498637         2.102599        -0.375385
 H         0.475780         1.237997         1.334033
 H        -0.960929         0.051270         1.771241
 H        -0.888297        -0.728375        -0.598722
 H        -1.214214         2.979225         2.507378
