19
Iteration:  4760charge 0 multiplicity 1
 O        -3.118475         4.870391         1.944964
 C        -2.189626         4.069452         1.260396
 C        -2.925211         3.039692         0.438120
 C        -2.079068         2.158700        -0.373239
 C        -1.340311         1.679964         0.903449
 C        -1.260671         0.222673         1.036341
 C         0.056405        -0.231697         0.405756
 O         0.296841        -0.019605        -0.792344
 C        -2.236938         2.556421         1.755858
 H        -2.574054         5.055920         2.726211
 H        -1.252794         4.692967         0.996728
 H        -3.951461         3.311251         0.116187
 H        -2.816740         1.318813        -0.616107
 H        -1.443693         2.425783        -1.214478
 H        -0.268863         2.013572         1.040010
 H        -1.162627        -0.022936         2.089030
 H        -2.221171        -0.283766         0.671692
 H         0.848490        -0.693533         1.151863
 H        -2.622790         2.226024         2.689466
