19
Iteration:  2932
 O        -3.780102         4.718947         1.142755
 C        -3.327104         3.368733         1.085249
 C        -2.328707         3.038838         2.143216
 C        -2.182616         1.545623         2.246893
 C        -1.857554         1.547509         0.693471
 C        -0.475794         0.859504         0.605874
 C         0.009172         0.334263        -0.747062
 O         1.133049        -0.058827        -1.002160
 C        -1.876952         3.112042         0.674839
 H        -4.324333         4.904415         0.318511
 H        -4.090071         2.499784         1.013338
 H        -2.360768         3.800831         2.923306
 H        -1.392689         1.220500         2.933012
 H        -2.955434         0.955930         2.640425
 H        -2.395707         0.899052         0.017884
 H         0.356018         1.353274         1.048022
 H        -0.389150        -0.267442         1.140649
 H        -0.715326         0.184175        -1.575551
 H        -1.205173         3.810528         0.052719
