19
Iteration:  1691charge 0 multiplicity 1
 O        -3.427394         4.702713         0.862336
 C        -3.198154         3.334272         0.834239
 C        -2.303247         2.962251         2.115929
 C        -2.353092         1.378704         2.285498
 C        -1.759292         1.265627         0.853821
 C        -0.271600         0.915608         0.989268
 C         0.378501         0.302010        -0.239870
 O         0.025401         0.525138        -1.420612
 C        -1.763106         2.875669         0.655440
 H        -3.355530         5.060375        -0.019361
 H        -4.047187         2.746070         0.606268
 H        -2.183545         3.756991         2.870879
 H        -1.830870         0.830330         3.013106
 H        -3.359808         0.927778         2.423757
 H        -2.289424         0.789789         0.121322
 H         0.254150         1.824393         1.252476
 H        -0.086566         0.139456         1.662369
 H         1.353149        -0.075694         0.153380
 H        -1.113774         3.553416         0.085845
