19
Iteration:   593
 O        -3.074229         4.856984         1.595803
 C        -2.889138         3.807764         0.805080
 C        -3.322247         2.603652         1.483888
 C        -2.925351         1.351426         0.539936
 C        -1.429935         1.771625         0.594732
 C        -0.212073         0.882183         1.155285
 C        -0.054554        -0.074203         0.006571
 O         0.860677         0.034645        -0.776576
 C        -1.803682         3.017272         1.386861
 H        -3.012350         5.677054         1.100381
 H        -3.047411         3.885510        -0.313881
 H        -3.880868         2.698604         2.430553
 H        -3.217828         0.390864         1.118041
 H        -3.381632         1.466091        -0.457433
 H        -1.191578         2.112965        -0.554379
 H         0.732293         1.434819         1.003489
 H        -0.337741         0.611401         2.146630
 H        -0.849388        -0.808851        -0.131533
 H        -1.048294         3.541807         2.098500
