19
Iteration:  1593charge 0 multiplicity 1
 O        -3.623321         4.753574         1.059497
 C        -3.097691         3.486783         0.841686
 C        -2.674880         2.796394         2.097455
 C        -2.445707         1.252105         2.008710
 C        -1.548826         1.637753         0.687153
 C        -0.098029         1.121611         0.817332
 C         0.529503         0.450026        -0.438246
 O        -0.076597        -0.296397        -1.200594
 C        -1.622049         3.183518         0.999646
 H        -3.336565         5.300465         0.311252
 H        -3.688387         2.832980         0.181276
 H        -2.719751         3.393479         2.991653
 H        -1.800003         1.013654         2.799736
 H        -3.390934         0.710515         2.092422
 H        -1.943980         1.065908        -0.191165
 H         0.604680         1.931085         1.033302
 H        -0.095094         0.314907         1.607166
 H         1.551198         0.699068        -0.653403
 H        -0.833023         3.870457         1.102529
