19
Iteration:  2139charge 0 multiplicity 1
 O        -3.690522         4.643886         1.016559
 C        -3.368494         3.299448         1.149600
 C        -2.303506         2.961500         2.072140
 C        -2.232171         1.517166         2.336942
 C        -1.770867         1.379114         0.770558
 C        -0.278926         1.174082         0.661658
 C         0.411960         0.852249        -0.650195
 O         0.561901        -0.295013        -1.058029
 C        -2.033256         2.850215         0.532304
 H        -3.959930         4.878609         0.108458
 H        -4.319467         2.615918         1.148540
 H        -1.831916         3.705683         2.761632
 H        -1.382421         1.288830         2.869975
 H        -3.079366         0.903770         2.718593
 H        -2.327940         0.490499         0.363520
 H         0.286699         2.000435         1.175891
 H        -0.030112         0.220051         1.360932
 H         0.906830         1.743826        -1.060669
 H        -1.623495         3.745898        -0.076586
