19
Iteration:  4205
 O        -3.559582         4.667946         1.851563
 C        -2.618638         3.901321         1.112894
 C        -2.981585         2.453239         1.041961
 C        -2.202038         1.882686        -0.192993
 C        -0.890796         2.265711         0.576510
 C        -0.165848         0.996241         1.125119
 C         0.101482         0.131628        -0.115089
 O        -0.553787        -0.827409        -0.507569
 C        -1.701968         2.930809         1.744523
 H        -3.246942         5.433243         2.346687
 H        -2.433913         4.422677         0.126542
 H        -3.902302         2.194466         1.569741
 H        -2.233407         0.856588        -0.466946
 H        -2.399795         2.465692        -1.093543
 H        -0.170378         3.012729         0.105107
 H         0.648872         1.336934         1.749432
 H        -0.735220         0.342230         1.767985
 H         0.935030         0.550137        -0.768929
 H        -1.488567         2.757793         2.870623
