19
Iteration:  1152
 O        -3.697424         4.680286         1.434357
 C        -3.078897         3.539118         0.876422
 C        -2.847330         2.342404         1.842292
 C        -2.318813         1.243140         1.072316
 C        -1.188331         2.079516         0.467851
 C         0.238198         1.491881         0.467351
 C         0.318058         0.359746        -0.422942
 O        -0.375291        -0.652831        -0.325418
 C        -1.641861         3.287499         1.406307
 H        -3.286917         5.464246         1.042056
 H        -3.382143         3.401968        -0.171444
 H        -3.475391         2.426042         2.802497
 H        -1.821436         0.484436         1.753486
 H        -3.039974         0.653457         0.365615
 H        -1.428769         2.386332        -0.592151
 H         0.862525         2.279732         0.066737
 H         0.685778         1.253662         1.467635
 H         1.018648         0.455362        -1.362635
 H        -1.094268         4.201890         1.600910
