19
Iteration:  2585
 O        -3.484989         4.298133         0.426656
 C        -3.309081         3.009872         0.839253
 C        -2.386408         3.041977         2.045387
 C        -1.977256         1.639834         2.652995
 C        -1.610024         1.180602         1.229309
 C        -0.045294         0.833284         1.062851
 C         0.260681         0.579904        -0.425275
 O        -0.255070         1.091651        -1.423471
 C        -1.892346         2.586597         0.607957
 H        -3.531672         4.423035        -0.546354
 H        -4.248307         2.268084         0.883755
 H        -2.003249         4.048283         2.475700
 H        -1.096561         1.854068         3.385324
 H        -2.780313         1.166635         3.233944
 H        -2.268338         0.220614         0.981403
 H         0.434190         1.774443         1.258665
 H         0.361592        -0.015841         1.699100
 H         1.233398        -0.014487        -0.520949
 H        -1.091002         3.188915         0.106182
