19
Iteration:  2051
 O        -3.865705         4.691623         1.048648
 C        -3.351485         3.353601         1.088491
 C        -2.428319         3.072423         2.246044
 C        -2.197140         1.558013         2.343739
 C        -1.748047         1.576007         0.783607
 C        -0.352900         0.921551         0.473934
 C         0.000053         0.356300        -0.894830
 O         1.096538        -0.178086        -0.955103
 C        -1.846756         3.063060         0.800250
 H        -3.973213         4.983402         0.126305
 H        -4.057352         2.479875         0.825181
 H        -2.407845         3.880479         3.031678
 H        -1.298363         1.324225         2.811008
 H        -3.129085         0.887670         2.662200
 H        -2.507994         1.124588         0.198688
 H         0.471498         1.633689         0.488895
 H        -0.140588        -0.008217         1.189352
 H        -0.535417         0.506614        -1.859532
 H        -1.325788         3.750101         0.131963
