19
Iteration:  4546charge 0 multiplicity 1
 O        -3.026416         4.886740         2.005004
 C        -2.304953         4.106962         1.215615
 C        -3.219284         3.110528         0.662696
 C        -2.474833         2.145960        -0.359717
 C        -1.350546         1.795781         0.683436
 C        -0.969463         0.360773         1.088256
 C        -0.292014        -0.328995        -0.175986
 O         0.911901        -0.370250        -0.232789
 C        -2.159344         2.662462         1.660307
 H        -2.563185         5.143857         2.858803
 H        -1.573669         4.609403         0.599007
 H        -4.332680         3.190644         0.648450
 H        -3.103689         1.345639        -0.590566
 H        -2.053721         2.490392        -1.279811
 H        -0.393414         2.413604         0.351666
 H        -0.191442         0.416822         1.914306
 H        -1.790438        -0.259166         1.424306
 H        -0.847856        -0.849640        -1.051688
 H        -2.366449         2.579837         2.711231
