19
Iteration:  4384charge 0 multiplicity 1
 O        -3.499093         4.617938         2.251848
 C        -2.521992         4.081604         1.229439
 C        -3.153121         2.846279         0.721565
 C        -2.306875         2.385267        -0.481367
 C        -1.065955         2.214710         0.426515
 C        -0.718588         0.837534         0.888715
 C         0.058665        -0.121140        -0.145642
 O         0.292289        -1.290330        -0.035686
 C        -1.784971         2.919432         1.620464
 H        -2.921236         5.113139         2.833145
 H        -2.123672         4.880204         0.565893
 H        -4.199242         2.649470         0.926058
 H        -2.461749         1.368707        -0.807145
 H        -2.206674         3.190973        -1.233535
 H        -0.257319         2.753939        -0.070265
 H        -0.103743         0.972121         1.771420
 H        -1.644612         0.295294         1.085602
 H         0.467115         0.441482        -1.018140
 H        -1.651100         2.674995         2.621537
