19
Iteration:  4408charge 0 multiplicity 1
 O        -3.479598         4.672634         2.130705
 C        -2.482737         4.140494         1.152594
 C        -3.069805         2.887343         0.818741
 C        -2.372458         2.283682        -0.392556
 C        -1.026737         2.146981         0.574644
 C        -0.860986         0.630773         0.811248
 C        -0.004665        -0.028164        -0.204541
 O         0.407759        -1.157137        -0.072656
 C        -1.798233         2.918046         1.700665
 H        -3.047842         5.367656         2.635074
 H        -2.116249         4.857104         0.429070
 H        -4.107163         2.644889         1.099106
 H        -2.679836         1.219901        -0.589115
 H        -2.243212         2.967359        -1.208539
 H        -0.018763         2.554034         0.242958
 H        -0.387923         0.406616         1.746992
 H        -1.832483         0.105692         0.660138
 H         0.415172         0.621082        -1.005438
 H        -1.763175         2.812438         2.777720
