19
Iteration:  4732charge 0 multiplicity 1
 O        -2.905314         4.968300         2.048432
 C        -2.259446         4.005496         1.287669
 C        -3.170649         3.064096         0.438108
 C        -2.242479         2.251122        -0.511770
 C        -1.381932         1.761228         0.807600
 C        -1.147319         0.295728         1.097063
 C         0.149066        -0.316128         0.426605
 O         0.458900        -0.136880        -0.701382
 C        -2.390690         2.470846         1.639441
 H        -2.380230         4.871158         2.896277
 H        -1.322446         4.376862         0.921340
 H        -4.222857         3.316844         0.367164
 H        -2.750298         1.442425        -0.991888
 H        -1.590148         2.787774        -1.262540
 H        -0.380981         2.276262         0.924197
 H        -1.145922         0.023920         2.185867
 H        -2.009228        -0.187899         0.664889
 H         0.645512        -0.962992         1.093786
 H        -2.688008         1.964085         2.648527
