19
Iteration:  4544charge 0 multiplicity 1
 O        -3.043436         4.888849         2.007682
 C        -2.288968         4.107881         1.214846
 C        -3.207706         3.124461         0.657410
 C        -2.492714         2.155928        -0.351228
 C        -1.366459         1.791290         0.684651
 C        -0.968476         0.363354         1.086451
 C        -0.270700        -0.334656        -0.169450
 O         0.919906        -0.389531        -0.249237
 C        -2.168202         2.666086         1.658417
 H        -2.590336         5.104594         2.852140
 H        -1.530831         4.545569         0.645282
 H        -4.281621         3.241738         0.645339
 H        -3.086553         1.237861        -0.594801
 H        -2.075903         2.458190        -1.299908
 H        -0.397945         2.433286         0.435514
 H        -0.167835         0.452809         1.870312
 H        -1.826465        -0.217881         1.544913
 H        -0.836019        -0.764656        -1.056652
 H        -2.365897         2.613704         2.684821
