19
Iteration:   117
 O        -3.261751         5.020477         1.770276
 C        -2.762288         3.971468         0.984814
 C        -3.275789         2.456707         0.875705
 C        -2.423218         1.489500        -0.011386
 C        -1.143188         1.985577         0.640062
 C        -0.119545         1.003015         1.189886
 C         0.499742         0.218131         0.023513
 O        -0.193335        -0.626304        -0.499424
 C        -1.972255         2.855954         1.654737
 H        -3.868918         4.607844         2.389589
 H        -2.376683         4.418843         0.042651
 H        -4.243308         2.201609         1.294026
 H        -2.719219         0.411621         0.161381
 H        -2.446079         1.619745        -1.232319
 H        -0.700330         2.748691         0.003750
 H         0.624918         1.572040         1.904937
 H        -0.712271         0.249266         1.796671
 H         1.410733         0.654098        -0.419112
 H        -1.660695         3.027291         2.658657
