19
Iteration:   692
 O        -3.223521         5.080198         1.499032
 C        -2.912355         3.836691         0.812430
 C        -3.272159         2.620722         1.568015
 C        -3.019373         1.321937         0.749454
 C        -1.498695         1.720229         0.528385
 C        -0.240631         0.878507         1.067106
 C         0.041873         0.109226        -0.205233
 O         1.064819        -0.231843        -0.758862
 C        -1.800866         2.951652         1.507130
 H        -2.385634         5.625034         1.562250
 H        -2.981037         3.955705        -0.345071
 H        -3.956455         2.668029         2.387907
 H        -3.006057         0.368388         1.354998
 H        -3.597161         1.125069        -0.142864
 H        -1.297881         2.026225        -0.544378
 H         0.518450         1.599366         1.478434
 H        -0.550168         0.105560         1.755678
 H        -1.011783        -0.084554        -0.629829
 H        -1.060481         3.364022         2.163558
