19
Iteration:  4537charge 0 multiplicity 1
 O        -3.106733         4.920101         2.034194
 C        -2.226474         4.096190         1.196865
 C        -3.163389         3.126001         0.586567
 C        -2.545649         2.144783        -0.347166
 C        -1.414844         1.811916         0.695966
 C        -0.968898         0.365795         1.072235
 C        -0.240807        -0.340184        -0.130050
 O         0.974169        -0.456193        -0.300908
 C        -2.205267         2.680294         1.689212
 H        -2.620876         5.020091         2.909133
 H        -1.286560         4.501638         0.698667
 H        -4.237888         3.426729         0.709859
 H        -3.014493         1.209443        -0.472447
 H        -2.229169         2.487667        -1.347180
 H        -0.454131         2.324971         0.636718
 H        -0.094894         0.537861         1.738429
 H        -1.741069        -0.032197         1.680583
 H        -0.959303        -0.465104        -1.003227
 H        -2.352560         2.531679         2.783924
