19
Iteration:  2012
 O        -3.717198         4.748227         0.968284
 C        -3.405014         3.327975         1.054255
 C        -2.517608         3.034950         2.255031
 C        -2.192802         1.458420         2.309684
 C        -1.682669         1.512156         0.767656
 C        -0.284194         0.946537         0.662440
 C        -0.044745         0.210486        -0.645144
 O         1.030363         0.039492        -1.207461
 C        -1.946887         3.064744         0.785995
 H        -3.466895         4.963946         0.034116
 H        -4.225299         2.690939         0.809194
 H        -2.473839         3.805999         3.052598
 H        -1.283661         1.347810         3.006425
 H        -2.911611         0.782870         2.691136
 H        -2.186666         0.961480        -0.125423
 H         0.549544         1.754471         0.731727
 H        -0.078060         0.370899         1.536339
 H        -1.083877        -0.106433        -1.126346
 H        -1.271311         3.757514         0.122435
