19
Iteration:   526charge 0 multiplicity 1
 O        -3.394632         4.892735         1.679285
 C        -2.888039         3.883773         0.815371
 C        -3.168543         2.599893         1.586336
 C        -2.957056         1.534137         0.439673
 C        -1.363444         1.937615         0.413215
 C        -0.283988         0.921458         1.067863
 C         0.206447        -0.296370         0.221196
 O         0.758558        -0.206120        -0.886034
 C        -1.739820         3.056083         1.392236
 H        -2.634608         5.422825         2.055464
 H        -3.065347         4.051379        -0.295868
 H        -3.921693         2.750000         2.392173
 H        -3.277426         0.444554         0.640164
 H        -3.247616         1.775026        -0.591637
 H        -1.004765         2.054396        -0.696732
 H         0.634302         1.515510         0.947853
 H        -0.426746         0.681194         2.055461
 H         0.141375        -1.295469         0.745452
 H        -0.998716         3.565911         2.034898
