19
Iteration:  1585charge 0 multiplicity 1
 O        -3.603719         4.778301         1.063238
 C        -3.146161         3.481903         0.880130
 C        -2.693439         2.770710         2.100625
 C        -2.451411         1.293287         1.922586
 C        -1.484367         1.644293         0.742676
 C         0.032314         1.122309         0.813157
 C         0.427461         0.499517        -0.452731
 O        -0.078675        -0.332931        -1.158120
 C        -1.678843         3.140649         0.950521
 H        -3.147782         5.290359         0.396582
 H        -3.588379         2.714556         0.270455
 H        -2.920230         3.235426         3.040002
 H        -1.834206         1.082438         2.860009
 H        -3.346062         0.730064         1.814288
 H        -1.958602         1.321020        -0.181279
 H         0.609938         1.963840         1.088643
 H         0.042549         0.235648         1.560804
 H         1.542683         0.561531        -0.743701
 H        -0.891798         3.893393         1.111836
