19
Iteration:   601charge 0 multiplicity 1
 O        -3.135483         4.920554         1.585431
 C        -2.864546         3.765597         0.743213
 C        -3.304381         2.605686         1.525712
 C        -2.960942         1.378992         0.608162
 C        -1.428033         1.771314         0.608161
 C        -0.217845         0.901348         1.158359
 C        -0.051263        -0.106562        -0.022484
 O         0.891807         0.026817        -0.806416
 C        -1.756383         2.946521         1.404808
 H        -3.028349         5.751591         1.126903
 H        -3.032691         4.032895        -0.373232
 H        -4.040663         2.697072         2.394202
 H        -3.227671         0.331192         0.792047
 H        -3.440730         1.601854        -0.301033
 H        -0.888280         2.021573        -0.294477
 H         0.694503         1.564013         1.149626
 H        -0.387086         0.449525         2.167191
 H        -0.931424        -0.764837        -0.275222
 H        -1.112776         3.594313         2.054247
