19
Iteration:  4524charge 0 multiplicity 1
 O        -3.109323         4.976171         2.043948
 C        -2.216782         4.094082         1.271779
 C        -3.135272         3.127699         0.512610
 C        -2.560564         2.037876        -0.407287
 C        -1.417583         1.873572         0.715662
 C        -0.848919         0.434468         1.078759
 C        -0.197356        -0.243425        -0.121141
 O         0.939073        -0.583162        -0.330097
 C        -2.267321         2.683702         1.793360
 H        -2.757511         5.035883         2.917701
 H        -1.379030         4.685436         0.929635
 H        -4.207590         3.424835         0.483628
 H        -3.334039         1.370593        -0.409642
 H        -2.382274         2.347720        -1.416685
 H        -0.579158         2.442457         0.178924
 H        -0.179065         0.549826         1.983396
 H        -1.536919        -0.366489         1.229590
 H        -0.957846        -0.546115        -0.942553
 H        -2.527473         2.256206         2.734336
