19
Iteration:  4748
 O        -3.017214         4.885751         2.007760
 C        -2.213096         3.967919         1.293431
 C        -3.010154         3.065484         0.435496
 C        -2.121962         2.141711        -0.428555
 C        -1.345868         1.765229         0.831838
 C        -1.218019         0.207293         1.061634
 C         0.043748        -0.262102         0.408818
 O         0.386255        -0.069572        -0.755495
 C        -2.331557         2.631025         1.728091
 H        -2.747478         5.190779         2.917868
 H        -1.210660         4.239561         0.868718
 H        -4.087335         3.292625         0.319351
 H        -2.642750         1.256435        -0.910489
 H        -1.698445         2.693348        -1.243665
 H        -0.313900         2.269755         0.740667
 H        -1.165401         0.014443         2.139562
 H        -2.033404        -0.454786         0.619758
 H         0.866943        -0.719065         1.129183
 H        -2.820648         2.555889         2.631063
