19
Iteration:  2671charge 0 multiplicity 1
 O        -3.671196         4.406611         0.542006
 C        -3.241109         3.126226         0.942874
 C        -2.341551         3.056298         2.112154
 C        -2.057525         1.629029         2.521421
 C        -1.568381         1.267581         1.039713
 C        -0.158915         0.850909         0.983822
 C         0.402422         0.862711        -0.429373
 O        -0.175965         0.430062        -1.403680
 C        -1.783415         2.724029         0.692089
 H        -3.862754         4.344410        -0.384634
 H        -4.010608         2.416409         0.874368
 H        -1.900111         3.895776         2.680249
 H        -1.477371         1.488302         3.382773
 H        -3.080404         1.107812         2.925810
 H        -2.228902         0.572439         0.579048
 H         0.553804         1.611630         1.518618
 H        -0.073431        -0.184918         1.436886
 H         1.320952         1.462497        -0.540485
 H        -1.048694         3.296646         0.123774
