19
Iteration:   499
 O        -3.439522         5.018273         1.721711
 C        -3.040400         3.871534         0.919053
 C        -3.151230         2.532315         1.453566
 C        -2.834241         1.465853         0.384511
 C        -1.229258         1.989511         0.403490
 C        -0.287129         0.954514         1.059728
 C         0.240939        -0.233646         0.219985
 O         0.638928        -0.335350        -0.915376
 C        -1.703551         3.081116         1.432761
 H        -2.670305         5.625053         1.525590
 H        -3.129802         4.062839        -0.154322
 H        -3.736820         2.314275         2.341580
 H        -3.060456         0.496115         0.745845
 H        -3.152754         1.724859        -0.613616
 H        -0.830680         2.182618        -0.561239
 H         0.664484         1.496862         1.297152
 H        -0.628888         0.573947         2.121638
 H         0.201407        -1.160337         0.825729
 H        -1.104910         3.414451         2.299474
