19
Iteration:  3981
 O        -2.937248         5.085649         1.473013
 C        -2.663335         3.811299         0.885831
 C        -3.317521         2.649107         1.453562
 C        -2.992384         1.386556         0.502064
 C        -1.473621         1.692264         0.734589
 C        -0.471460         0.570810         1.110712
 C        -0.063899        -0.121796        -0.128294
 O         0.734767         0.303423        -0.886132
 C        -1.703574         2.878797         1.644176
 H        -1.973220         5.378452         1.526154
 H        -2.586105         3.731319        -0.217485
 H        -4.027152         2.716817         2.215305
 H        -3.414322         0.424931         0.805874
 H        -3.146589         1.696120        -0.471858
 H        -1.049573         2.151915        -0.241640
 H         0.372675         0.910990         1.669933
 H        -0.987552        -0.241744         1.632921
 H        -0.707705        -1.038900        -0.186863
 H        -1.309303         3.255109         2.652054
