19
Iteration:    63
 O        -3.555873         4.825037         1.558981
 C        -2.655040         3.931702         1.083446
 C        -3.073259         2.511537         0.968313
 C        -2.260063         1.692698         0.086581
 C        -1.014235         2.098318         0.834203
 C        -0.274119         0.873706         1.189514
 C         0.158935         0.338339        -0.178256
 O        -0.128668        -0.755321        -0.564049
 C        -1.871570         2.906667         1.811815
 H        -3.302745         5.633502         1.125198
 H        -2.144783         4.277953         0.184924
 H        -4.103691         2.250277         1.280919
 H        -2.515963         0.656483         0.264171
 H        -2.264312         1.632302        -1.078065
 H        -0.297821         2.751544         0.268395
 H         0.702515         1.173335         1.655141
 H        -0.860832         0.093980         1.706119
 H         1.130097         0.918886        -0.510780
 H        -1.860997         2.832891         2.861341
