19
Iteration:  4555
 O        -3.007238         4.941117         2.062234
 C        -2.325107         4.077301         1.153250
 C        -3.227463         2.995932         0.614980
 C        -2.425366         2.133298        -0.385248
 C        -1.323155         1.828058         0.682187
 C        -0.980598         0.344438         1.023282
 C        -0.336534        -0.308231        -0.144559
 O         0.885330        -0.299161        -0.188234
 C        -2.126545         2.662391         1.709897
 H        -2.366605         5.252126         2.776242
 H        -1.686359         4.588950         0.500640
 H        -4.304798         3.026180         0.798879
 H        -3.160928         1.350243        -0.656028
 H        -2.100790         2.692892        -1.256595
 H        -0.303049         2.216517         0.260330
 H        -0.315008         0.222294         1.920258
 H        -1.909690        -0.275283         1.146869
 H        -1.035180        -0.897350        -0.792374
 H        -2.222661         2.346568         2.711491
