19
Iteration:  3474charge 0 multiplicity 1
 O        -3.471418         4.780346         1.475445
 C        -3.133091         3.551871         0.949991
 C        -2.605138         2.551959         1.990784
 C        -2.379347         1.208924         1.366515
 C        -1.310979         1.871954         0.384905
 C         0.084101         1.314616         0.626784
 C         0.218420         0.024780        -0.026543
 O        -0.351115        -0.209379        -1.065402
 C        -1.695095         3.272219         1.082171
 H        -3.026779         5.480772         1.033377
 H        -3.779339         3.309057         0.083140
 H        -2.684921         2.737254         3.101328
 H        -1.889635         0.544415         2.044880
 H        -3.286988         0.685465         0.940313
 H        -1.706764         1.770406        -0.716281
 H         0.884207         2.003993         0.278463
 H         0.254844         1.130902         1.798687
 H         0.920623        -0.833415         0.393728
 H        -1.017911         4.068767         1.184595
