19
Iteration:  3044
 O        -3.269707         4.746836         0.777792
 C        -3.210691         3.307867         0.999923
 C        -2.207380         2.989294         2.049714
 C        -2.396606         1.501149         2.471066
 C        -1.947654         1.108369         0.998904
 C        -0.560208         0.601067         0.871631
 C        -0.157405         0.585410        -0.627461
 O         0.899472         0.792928        -1.206357
 C        -1.888471         2.621890         0.645383
 H        -3.837909         4.740288        -0.039730
 H        -4.178500         2.716288         0.871451
 H        -1.732259         3.766667         2.671202
 H        -1.747348         1.301645         3.227375
 H        -3.469328         1.278136         2.663416
 H        -2.689123         0.535059         0.445268
 H         0.165419         1.313095         1.362431
 H        -0.146178        -0.510300         1.135949
 H        -1.077657         0.159878        -1.155349
 H        -1.235065         3.103379        -0.056068
