19
Iteration:  1445
 O        -3.770776         4.688036         1.467320
 C        -3.241671         3.501364         0.992849
 C        -2.614097         2.636619         2.014748
 C        -2.155784         1.322867         1.343829
 C        -1.320967         2.007995         0.315539
 C         0.166870         1.513041         0.495895
 C         0.176793        -0.012358         0.126623
 O        -0.127048        -0.553023        -0.950513
 C        -1.695492         3.320587         0.977082
 H        -3.657150         5.422349         0.875591
 H        -3.873052         3.061365         0.136532
 H        -2.928614         2.757034         3.019371
 H        -1.540903         0.653250         2.070822
 H        -3.066224         0.933819         0.956449
 H        -1.544436         2.044873        -0.823147
 H         0.793587         2.126930        -0.184600
 H         0.291512         1.599273         1.538301
 H         0.800593        -0.724358         0.811278
 H        -1.042780         4.059089         1.334349
