19
Iteration:  1660charge 0 multiplicity 1
 O        -3.512135         4.806344         0.919022
 C        -3.317397         3.423878         1.021431
 C        -2.523452         2.964367         2.143413
 C        -2.374378         1.431878         2.108056
 C        -1.564043         1.318317         0.785308
 C        -0.116887         0.921499         0.883560
 C         0.500399         0.266315        -0.278128
 O         0.010563         0.224063        -1.371017
 C        -1.777155         2.982582         0.739106
 H        -3.205918         5.019943        -0.004043
 H        -4.163309         2.780739         0.777640
 H        -2.403534         3.594313         3.046400
 H        -1.787726         0.931189         2.912132
 H        -3.219374         0.798156         1.926377
 H        -2.087648         0.902086        -0.118331
 H         0.440159         1.720593         1.360413
 H        -0.146367         0.059711         1.576197
 H         1.512981        -0.155833        -0.072133
 H        -1.174789         3.762805         0.169642
