19
Iteration:  4787
 O        -3.228683         4.881254         1.847199
 C        -2.203506         4.041380         1.378008
 C        -2.859654         2.926906         0.426230
 C        -1.863150         2.172633        -0.350817
 C        -1.196201         1.700513         0.984779
 C        -1.232294         0.136627         1.122203
 C        -0.009299        -0.281996         0.322393
 O         0.074395         0.042215        -0.849853
 C        -2.219139         2.674088         1.744346
 H        -2.853509         5.262203         2.650460
 H        -1.307276         4.609015         1.156782
 H        -3.880984         3.139011         0.116027
 H        -2.351906         1.359680        -0.830228
 H        -1.177019         2.662698        -1.100739
 H        -0.185839         1.941965         1.099510
 H        -1.082547        -0.153991         2.191938
 H        -2.154166        -0.253305         0.789520
 H         0.931561        -0.578163         0.969354
 H        -2.796851         2.391418         2.683982
