19
Iteration:  3260
 O        -3.073894         4.850617         0.910793
 C        -3.176136         3.429902         0.915949
 C        -2.358359         2.891820         2.136242
 C        -2.527000         1.368905         2.267191
 C        -1.812688         1.157282         0.812549
 C        -0.411454         0.633855         0.914040
 C         0.424816         0.551081        -0.317129
 O        -0.012542         0.620241        -1.475787
 C        -1.805181         2.720222         0.802806
 H        -3.019058         5.154996        -0.017513
 H        -4.078766         3.030485         0.543162
 H        -2.013925         3.498543         2.985304
 H        -1.950184         0.860703         3.086363
 H        -3.486903         0.994400         2.284600
 H        -2.359479         0.713499         0.002052
 H         0.089682         1.349906         1.657747
 H        -0.475987        -0.482470         1.386342
 H         1.558416         0.453422        -0.275347
 H        -1.213244         3.471368         0.179236
