19
Iteration:  3349charge 0 multiplicity 1
 O        -3.353698         4.893485         1.158358
 C        -3.112895         3.511902         0.880941
 C        -2.675776         2.849980         2.136953
 C        -2.528473         1.219448         1.953026
 C        -1.535125         1.550147         0.721448
 C        -0.170617         0.889486         0.829038
 C         0.470858         0.372815        -0.478853
 O        -0.135300        -0.088496        -1.392757
 C        -1.672389         3.101687         1.058700
 H        -2.776788         5.462171         0.659167
 H        -3.805851         3.160831         0.188368
 H        -2.906180         3.439559         3.040809
 H        -1.964452         0.648786         2.771321
 H        -3.393377         0.785344         1.654587
 H        -2.005627         1.412784        -0.227406
 H         0.593359         1.518322         1.379413
 H        -0.344910        -0.088875         1.471890
 H         1.567577         0.563301        -0.443035
 H        -0.785147         3.865749         1.217796
