19
Iteration:   667
 O        -3.328785         5.031072         1.379100
 C        -2.836681         3.807955         0.824593
 C        -3.277184         2.635787         1.621823
 C        -2.977984         1.384372         0.740665
 C        -1.457978         1.831781         0.682179
 C        -0.371577         0.791623         0.950506
 C         0.003655        -0.158831        -0.247584
 O         1.095968        -0.098569        -0.777086
 C        -1.732808         3.083061         1.585890
 H        -2.616691         5.456119         1.925557
 H        -2.762673         3.827040        -0.346773
 H        -3.797246         2.760137         2.603828
 H        -3.017049         0.356174         1.205246
 H        -3.436609         1.380572        -0.223264
 H        -1.246955         2.209183        -0.282473
 H         0.570993         1.416012         1.188879
 H        -0.609367         0.031730         1.813298
 H        -0.849067        -0.847674        -0.566970
 H        -1.002531         3.581144         2.357934
