19
Iteration:  2539
 O        -3.825366         4.274801         0.390758
 C        -3.294248         3.043544         0.991916
 C        -2.245139         3.141669         2.056188
 C        -1.957361         1.784814         2.650925
 C        -1.526305         1.255242         1.151888
 C        -0.229501         0.567105         1.021611
 C         0.260206         0.381099        -0.504704
 O         0.052036         1.184647        -1.392115
 C        -1.832602         2.702464         0.696596
 H        -3.780498         4.056742        -0.531996
 H        -4.104992         2.217150         0.997220
 H        -2.061842         4.153793         2.544534
 H        -1.066239         1.788377         3.245541
 H        -2.816575         1.245208         3.246600
 H        -2.354474         0.627817         0.631113
 H         0.646337         1.208949         1.250528
 H        -0.165261        -0.402750         1.588190
 H         0.959130        -0.506268        -0.590666
 H        -1.323756         3.372815         0.028849
