19
Iteration:   446charge 0 multiplicity 1
 O        -3.364359         4.731224         1.752612
 C        -2.763419         3.888820         0.741854
 C        -3.112386         2.455909         1.337898
 C        -2.671564         1.449190         0.281212
 C        -1.202642         1.966116         0.512660
 C        -0.178929         1.069272         1.202841
 C         0.188968        -0.065616         0.348705
 O         0.147190        -0.156651        -0.860323
 C        -1.761509         2.993445         1.386444
 H        -3.384780         5.662290         1.399203
 H        -3.075428         4.155579        -0.327750
 H        -3.827390         2.319260         2.158137
 H        -2.786709         0.457095         0.582460
 H        -3.111197         1.637746        -0.668133
 H        -0.667477         2.213608        -0.445522
 H         0.650355         1.735075         1.219025
 H        -0.254090         0.753459         2.220451
 H         0.703988        -0.929549         0.872923
 H        -1.081988         3.302773         2.185239
