19
Iteration:  2014
 O        -3.721710         4.751162         0.961286
 C        -3.400491         3.321878         1.068652
 C        -2.513544         3.018146         2.248086
 C        -2.199862         1.454769         2.313568
 C        -1.685127         1.534677         0.766349
 C        -0.317008         0.963362         0.651885
 C        -0.039268         0.217549        -0.657217
 O         1.037830         0.023197        -1.197298
 C        -1.945668         3.079395         0.791253
 H        -3.483490         5.005766         0.023765
 H        -4.240456         2.604666         0.812541
 H        -2.413029         3.775606         2.996576
 H        -1.234097         1.350483         2.983904
 H        -2.833571         0.782627         2.727521
 H        -2.176967         0.968028        -0.074830
 H         0.606773         1.725713         0.706728
 H        -0.082665         0.305765         1.560611
 H        -1.033976        -0.076248        -1.140122
 H        -1.264779         3.687937         0.172747
