19
Iteration:  3829charge 0 multiplicity 1
 O        -3.196574         4.970139         1.876098
 C        -2.891772         3.943122         0.939432
 C        -3.015631         2.531639         1.573248
 C        -3.067285         1.578089         0.574039
 C        -1.535995         1.908600         0.274626
 C        -0.470686         0.881680         0.813926
 C        -0.066199        -0.133044        -0.249904
 O         1.091412        -0.455663        -0.504169
 C        -1.654111         3.092388         1.350990
 H        -2.652999         5.731101         1.564515
 H        -3.056611         4.062728        -0.199064
 H        -3.485878         2.585024         2.497945
 H        -3.306219         0.421336         0.770497
 H        -3.994350         1.783435        -0.039639
 H        -1.283472         2.253428        -0.663869
 H         0.396995         1.375742         1.220854
 H        -0.998873         0.459560         1.714730
 H        -0.939729        -0.289812        -0.956349
 H        -0.863219         3.338518         2.051084
