19
Iteration:  4090charge 0 multiplicity 1
 O        -3.135221         4.994003         1.859718
 C        -2.677696         3.937980         1.049848
 C        -3.276163         2.571891         1.208353
 C        -2.707407         1.556370         0.141993
 C        -1.270898         1.917771         0.462196
 C        -0.480076         0.860738         1.106984
 C         0.266876        -0.144753         0.235927
 O         0.237047        -0.294747        -0.989029
 C        -1.807656         2.930162         1.581388
 H        -2.329778         5.469913         2.096913
 H        -2.339014         4.359821         0.089575
 H        -4.120862         2.423964         1.953178
 H        -3.129584         0.506362         0.070708
 H        -2.926066         1.977652        -0.943896
 H        -0.750636         2.313227        -0.390600
 H         0.435048         1.310419         1.683325
 H        -1.092637         0.287294         1.887314
 H         1.038355        -0.674278         0.799152
 H        -1.302505         2.866917         2.590263
