19
Iteration:  3416
 O        -3.467711         4.883378         1.281081
 C        -3.060502         3.542893         0.999637
 C        -2.771474         2.778211         2.173532
 C        -2.587526         1.300416         1.654319
 C        -1.421775         1.655019         0.646935
 C         0.052037         1.145177         0.774253
 C         0.458879         0.090707        -0.376700
 O        -0.236479        -0.192341        -1.375041
 C        -1.612608         3.107116         1.133903
 H        -3.366947         5.422914         0.427890
 H        -3.712889         3.091229         0.280956
 H        -3.104023         3.214271         3.073664
 H        -2.214352         0.686914         2.528506
 H        -3.393633         0.875607         1.192499
 H        -1.680881         1.323825        -0.331764
 H         0.620961         2.081888         0.646406
 H         0.340716         0.902292         1.857171
 H         1.531902        -0.337563        -0.186114
 H        -0.780185         3.836918         1.130945
