19
Iteration:  3146
 O        -3.204585         4.627081         0.589206
 C        -3.026683         3.274547         0.851105
 C        -2.191981         3.080568         2.084450
 C        -2.276164         1.563852         2.543090
 C        -1.848676         1.157556         1.003068
 C        -0.748920         0.067718         0.823993
 C         0.033854         0.352915        -0.603658
 O         0.226982         1.514355        -0.964715
 C        -1.678296         2.600936         0.668518
 H        -3.213708         4.736684        -0.363833
 H        -3.897763         2.558820         0.734332
 H        -1.623574         3.970056         2.567903
 H        -1.644813         1.195802         3.223701
 H        -3.265716         1.258784         2.901119
 H        -2.656053         0.772172         0.414718
 H         0.149168         0.226248         1.587451
 H        -0.892214        -1.134415         0.886635
 H         0.178100        -0.577713        -1.178102
 H        -0.965981         3.198837        -0.030260
