19
Iteration:  1966
 O        -3.609053         4.742165         0.925288
 C        -3.268938         3.354470         0.938810
 C        -2.427807         2.984619         2.143891
 C        -2.354562         1.510838         2.371990
 C        -1.785191         1.365371         0.864453
 C        -0.211638         0.935953         0.824607
 C         0.081317         0.125725        -0.438615
 O         0.768221         0.399064        -1.410009
 C        -1.853025         2.910560         0.739752
 H        -4.002613         5.094586         0.122726
 H        -3.967736         2.655478         0.611161
 H        -2.396137         3.790705         2.911899
 H        -1.718646         1.053013         3.047381
 H        -3.342720         1.026218         2.518467
 H        -2.462087         0.625992         0.229247
 H         0.413347         1.787968         0.802238
 H         0.162041         0.343732         1.611892
 H        -0.564806        -0.806989        -0.397542
 H        -1.135460         3.529310         0.134106
