19
Iteration:  1813charge 0 multiplicity 1
 O        -3.240765         4.519875         0.292903
 C        -3.094492         3.163876         0.783434
 C        -2.203603         3.067252         2.060615
 C        -2.233245         1.570658         2.581902
 C        -1.823323         1.028124         1.122250
 C        -0.441593         0.243770         0.928097
 C         0.218608         0.599258        -0.385455
 O        -0.170929         1.457406        -1.154399
 C        -1.688186         2.575929         0.788348
 H        -2.923137         4.536260        -0.628317
 H        -3.940869         2.524468         0.842713
 H        -2.035531         3.892480         2.774762
 H        -1.459511         1.542295         3.354863
 H        -3.224160         1.482306         3.034147
 H        -2.604298         0.577127         0.664789
 H         0.297268         0.321659         1.857360
 H        -0.751279        -0.842420         0.944776
 H         1.050883        -0.038745        -0.544548
 H        -0.964300         3.018869         0.096548
