19
Iteration:  4802charge 0 multiplicity 1
 O        -3.234852         4.882978         1.833160
 C        -2.267278         4.035787         1.241852
 C        -2.826282         2.995942         0.425340
 C        -1.699565         2.219921        -0.353361
 C        -1.201278         1.752340         1.045267
 C        -1.168220         0.257110         1.195952
 C        -0.031730        -0.256576         0.316891
 O        -0.020943        -0.013987        -0.921687
 C        -2.279948         2.458128         1.856988
 H        -2.919459         5.255340         2.707229
 H        -1.293854         4.381465         0.948451
 H        -3.908399         3.008352         0.164140
 H        -2.051553         1.373663        -0.990448
 H        -1.103892         2.925754        -0.866135
 H        -0.150682         2.213270         1.308668
 H        -0.967820        -0.007772         2.256993
 H        -2.115101        -0.288099         0.881025
 H         0.721257        -0.895897         0.724019
 H        -2.755974         2.176967         2.742851
