19
Iteration:  3756charge 0 multiplicity 1
 O        -3.249007         4.905194         2.054867
 C        -3.011694         3.865564         1.079715
 C        -3.158870         2.461140         1.548182
 C        -2.813647         1.476275         0.515035
 C        -1.400224         2.085645         0.131824
 C        -0.144144         1.313379         0.410074
 C        -0.125200        -0.010956        -0.212219
 O         0.780993        -0.887105        -0.203210
 C        -1.709855         3.172843         1.283147
 H        -2.552306         5.468076         1.786686
 H        -3.150077         4.173971         0.061902
 H        -3.954188         2.337492         2.224851
 H        -2.811080         0.478443         0.851804
 H        -3.394923         1.498213        -0.403393
 H        -1.356047         2.582591        -0.988917
 H         0.847131         1.794206         0.018998
 H         0.025944         1.255135         1.505565
 H        -1.129182        -0.333215        -0.570567
 H        -0.978089         3.655578         2.062378
