19
Iteration:  2452charge 0 multiplicity 1
 O        -3.861306         4.427830         0.589034
 C        -3.475897         3.105949         1.080717
 C        -2.235837         3.145185         1.904867
 C        -1.828732         1.746446         2.548489
 C        -1.676219         1.226294         1.108805
 C        -0.258938         0.548024         0.932755
 C         0.401117         0.355453        -0.377069
 O         0.343296         1.095714        -1.358907
 C        -2.025867         2.655462         0.558697
 H        -4.180882         4.368212        -0.322430
 H        -4.269492         2.313406         1.331917
 H        -2.027660         4.098447         2.270226
 H        -0.937546         2.024270         3.044800
 H        -2.588643         1.393098         3.166702
 H        -2.375304         0.363021         0.840897
 H         0.531537         1.056897         1.406521
 H        -0.196802        -0.424921         1.476242
 H         1.025960        -0.612417        -0.538714
 H        -1.820161         3.274081        -0.280539
