19
Iteration:  4678charge 0 multiplicity 1
 O        -2.930045         4.884240         2.169738
 C        -2.270172         4.049238         1.247240
 C        -3.192047         3.169826         0.496249
 C        -2.459007         2.293604        -0.490400
 C        -1.377089         1.760868         0.526672
 C        -1.104027         0.374938         0.985094
 C         0.001814        -0.436372         0.366034
 O         0.782247        -0.236578        -0.500809
 C        -2.332417         2.565069         1.660114
 H        -2.299330         4.848311         2.952866
 H        -1.465285         4.486279         0.754904
 H        -4.268549         3.259926         0.497286
 H        -3.050438         1.461092        -0.693417
 H        -2.089764         2.610150        -1.455853
 H        -0.444922         2.434534         0.394952
 H        -0.821224         0.405108         2.085414
 H        -1.941617        -0.303985         0.946836
 H        -0.197238        -1.553888         0.804472
 H        -2.556622         2.260900         2.742389
