19
Iteration:  1647
 O        -3.517759         4.820022         0.948812
 C        -3.309422         3.392079         0.944800
 C        -2.505836         2.939082         2.183936
 C        -2.383526         1.380634         2.062346
 C        -1.553717         1.534155         0.752673
 C        -0.095579         0.885515         0.947388
 C         0.573671         0.290553        -0.345118
 O        -0.004099         0.071556        -1.393645
 C        -1.868955         3.034535         0.817976
 H        -3.465374         5.182677         0.065736
 H        -4.151941         2.860778         0.560585
 H        -2.431310         3.547300         3.062003
 H        -1.930053         0.952858         2.908950
 H        -3.411017         0.985427         2.051843
 H        -1.963530         0.915094         0.014853
 H         0.706720         1.537565         1.272664
 H        -0.067916         0.112745         1.664588
 H         1.646231        -0.010229        -0.114764
 H        -1.197450         3.772980         0.435818
