19
Iteration:   463charge 0 multiplicity 1
 O        -3.331417         4.804921         1.733211
 C        -2.867345         3.784320         0.897585
 C        -3.173503         2.456861         1.310096
 C        -2.700739         1.414311         0.363777
 C        -1.239650         2.027009         0.375382
 C        -0.249436         1.137496         1.114305
 C         0.208087        -0.138433         0.320136
 O         0.303621        -0.224634        -0.877258
 C        -1.650996         3.092550         1.442357
 H        -3.319841         5.683166         1.285822
 H        -2.740417         4.028376        -0.114872
 H        -3.976304         2.407981         2.082840
 H        -2.792711         0.322689         0.710585
 H        -3.090184         1.369376        -0.712571
 H        -0.814066         2.460062        -0.517518
 H         0.728258         1.535481         1.560034
 H        -0.865637         0.727914         2.027265
 H         0.254089        -1.069905         0.930608
 H        -1.173125         3.549192         2.377320
