19
Iteration:  3265
 O        -3.059529         4.830473         0.919335
 C        -3.168680         3.428631         0.926274
 C        -2.367450         2.860030         2.161306
 C        -2.500163         1.365841         2.202739
 C        -1.835284         1.207019         0.828361
 C        -0.391041         0.651891         0.933975
 C         0.436875         0.567752        -0.336772
 O        -0.040569         0.576586        -1.466242
 C        -1.802991         2.748235         0.776625
 H        -3.124336         5.118424        -0.027933
 H        -4.114074         2.981902         0.481182
 H        -2.046115         3.500014         2.987703
 H        -1.969067         0.798382         3.015779
 H        -3.582901         0.938969         2.298745
 H        -2.348349         0.763520        -0.079799
 H         0.045270         1.291605         1.669490
 H        -0.496975        -0.213542         1.488139
 H         1.551108         0.496228        -0.167238
 H        -1.091228         3.472483         0.345162
