19
Iteration:  4786
 O        -3.228827         4.880692         1.848378
 C        -2.205817         4.039254         1.385435
 C        -2.863813         2.934630         0.420652
 C        -1.869398         2.165558        -0.350468
 C        -1.191585         1.699462         0.984064
 C        -1.233947         0.129934         1.127185
 C        -0.014219        -0.281079         0.331050
 O         0.083749         0.044984        -0.855356
 C        -2.213248         2.675345         1.734371
 H        -2.855388         5.277385         2.670864
 H        -1.269957         4.605933         1.125356
 H        -3.884746         3.167835         0.161546
 H        -2.387788         1.345569        -0.811942
 H        -1.183065         2.679196        -1.110008
 H        -0.197615         1.954135         1.066605
 H        -1.104777        -0.177332         2.177754
 H        -2.151833        -0.270816         0.759374
 H         0.938988        -0.570820         0.998561
 H        -2.803902         2.418389         2.695816
