19
Iteration:  3596
 O        -3.362867         4.775919         1.943182
 C        -3.147722         3.687178         1.062806
 C        -2.762196         2.410782         1.686687
 C        -2.518964         1.212899         0.689851
 C        -1.284270         1.995977         0.180231
 C         0.074573         1.573053         0.419959
 C         0.349328         0.247823        -0.195384
 O        -0.400830        -0.679537        -0.218921
 C        -1.653175         3.163678         1.069746
 H        -2.730131         5.444163         1.709391
 H        -3.791614         3.723468         0.151509
 H        -3.107722         2.178839         2.646306
 H        -2.317115         0.249379         1.070283
 H        -3.311474         1.043624        -0.115501
 H        -1.330467         2.296179        -0.969040
 H         0.792781         2.275724        -0.013412
 H         0.417995         1.356626         1.509575
 H         1.374872         0.139781        -0.826597
 H        -0.818348         3.823842         1.524606
