19
Iteration:  2067
 O        -3.881123         4.646700         1.132483
 C        -3.370774         3.380527         1.099700
 C        -2.385317         3.103140         2.158906
 C        -2.195000         1.612884         2.281427
 C        -1.741758         1.466687         0.796582
 C        -0.395473         0.908905         0.520460
 C         0.109518         0.447016        -0.874381
 O         1.097360        -0.302301        -0.992311
 C        -1.936148         3.154576         0.719021
 H        -4.194751         4.876737         0.213903
 H        -4.065413         2.642429         0.820391
 H        -2.046625         3.762541         2.912980
 H        -1.483842         1.391020         3.161817
 H        -3.089307         1.022302         2.592992
 H        -2.480122         0.944888         0.094113
 H         0.331433         1.662926         0.874553
 H        -0.130049         0.175527         1.190885
 H        -0.482601         0.843109        -1.709562
 H        -1.146088         3.866889         0.376058
