19
Iteration:  3579
 O        -3.450103         4.770001         1.896699
 C        -3.070485         3.664639         1.057808
 C        -2.900228         2.390647         1.815896
 C        -2.568309         1.330434         0.768292
 C        -1.305018         2.069145         0.117665
 C         0.204445         1.500376         0.411875
 C         0.500852         0.117279        -0.210697
 O        -0.426220        -0.688608        -0.347652
 C        -1.640710         3.237695         1.087423
 H        -2.891028         5.501991         1.713988
 H        -3.567071         3.629138         0.087496
 H        -3.008307         2.291490         2.938121
 H        -2.300435         0.360414         1.364138
 H        -3.391829         1.053886         0.160425
 H        -1.584558         2.238742        -0.876967
 H         0.916010         2.212028        -0.061771
 H         0.347737         1.468167         1.486735
 H         1.506681        -0.181803        -0.444585
 H        -1.002669         3.971191         1.499654
