19
Iteration:  2910
 O        -3.795784         4.640808         1.139093
 C        -3.307344         3.379160         1.065217
 C        -2.363445         3.074056         2.203341
 C        -2.233051         1.523765         2.190241
 C        -1.705467         1.586770         0.661553
 C        -0.356940         0.920367         0.623221
 C        -0.001784         0.433709        -0.731096
 O         1.020217        -0.167953        -0.983633
 C        -1.918433         3.078267         0.689254
 H        -4.219670         4.853715         0.316975
 H        -4.144508         2.621746         0.806769
 H        -1.864377         3.602436         2.965249
 H        -1.525903         1.181933         2.947875
 H        -3.074886         0.944289         2.447608
 H        -2.251935         0.898282         0.021785
 H         0.394860         1.563923         1.001223
 H        -0.294723         0.001666         1.168002
 H        -0.783012         0.471144        -1.514387
 H        -1.492775         3.935365         0.124198
