19
Iteration:  2866charge 0 multiplicity 1
 O        -3.763900         4.745228         1.035063
 C        -3.352673         3.350530         1.078189
 C        -2.540378         2.976621         2.250543
 C        -2.268038         1.494170         2.320213
 C        -1.740833         1.463566         0.833690
 C        -0.128855         1.116050         0.591632
 C         0.165708         0.558563        -0.853750
 O         0.904546        -0.387699        -1.084914
 C        -1.999927         3.026165         0.748038
 H        -3.550951         5.047700         0.150415
 H        -4.309367         2.762204         0.805718
 H        -2.258312         3.692866         2.921304
 H        -1.444638         1.199193         3.025331
 H        -3.056621         0.815252         2.687271
 H        -2.439261         1.008077         0.076452
 H         0.382346         2.076243         0.717508
 H         0.092858         0.468316         1.317185
 H        -0.280527         1.212883        -1.667028
 H        -1.318286         3.746651         0.330604
