19
Iteration:  3172
 O        -3.209671         4.721948         0.543643
 C        -3.065911         3.327967         0.932174
 C        -2.103345         3.011347         2.098031
 C        -2.308783         1.481659         2.447630
 C        -1.828990         1.153508         0.962618
 C        -0.704842         0.176183         0.813187
 C         0.094017         0.357699        -0.463008
 O         0.134292         1.419221        -1.045663
 C        -1.665470         2.623508         0.691504
 H        -3.613761         4.721373        -0.337042
 H        -3.900837         2.713655         0.817441
 H        -1.908169         3.764069         2.809554
 H        -1.553542         0.988309         3.160559
 H        -3.245263         1.159265         2.842984
 H        -2.634460         0.700562         0.336025
 H         0.084272         0.204697         1.585736
 H        -0.882653        -0.916759         0.792856
 H         0.511491        -0.628430        -0.724365
 H        -0.967214         3.100232         0.138567
