19
Iteration:   629charge 0 multiplicity 1
 O        -3.331754         5.045004         1.386234
 C        -2.827171         3.881564         0.966516
 C        -3.261882         2.605005         1.565817
 C        -2.883778         1.323208         0.653135
 C        -1.477612         1.881864         0.544560
 C        -0.379892         0.771518         1.079466
 C         0.019868        -0.144365        -0.107074
 O         0.985397        -0.032434        -0.843835
 C        -1.691116         3.012863         1.547261
 H        -2.651430         5.735071         1.188436
 H        -2.788773         3.900617        -0.074274
 H        -3.632309         2.511136         2.556770
 H        -2.911002         0.358201         1.198366
 H        -3.559772         1.076153        -0.281152
 H        -0.995311         2.186714        -0.458504
 H         0.503603         1.202185         1.504692
 H        -0.878222         0.130026         1.862606
 H        -0.678691        -0.959038        -0.343258
 H        -1.148221         3.283846         2.376253
