19
Iteration:  3910
 O        -2.989781         5.051229         1.541707
 C        -2.596724         3.889435         0.898037
 C        -3.263210         2.713205         1.462586
 C        -3.213596         1.402226         0.669733
 C        -1.558942         1.684436         0.600102
 C        -0.462471         0.678160         0.950449
 C        -0.051735        -0.101577        -0.203856
 O         1.053865         0.084085        -0.824686
 C        -1.795471         2.821941         1.634219
 H        -2.218772         5.671223         1.749309
 H        -2.466487         3.889219        -0.183059
 H        -3.964634         3.179240         2.278009
 H        -3.503139         0.666791         1.392899
 H        -3.704248         1.360649        -0.359432
 H        -1.523657         2.068376        -0.363493
 H         0.483974         1.226357         1.362087
 H        -0.985061         0.039597         1.737119
 H        -0.902318        -0.710969        -0.557443
 H        -1.221046         2.991559         2.543013
