19
Iteration:   794
 O        -3.398836         4.998351         1.807789
 C        -3.147324         3.849179         1.013789
 C        -3.041879         2.594132         1.700860
 C        -2.941198         1.493325         0.633584
 C        -1.513581         1.939469         0.253745
 C        -0.259640         0.984013         0.626658
 C         0.036010        -0.161027        -0.243923
 O         1.193407        -0.543916        -0.333837
 C        -1.738509         3.211441         1.179901
 H        -2.913082         5.767330         1.495746
 H        -3.463037         3.909213        -0.024962
 H        -3.382238         2.476668         2.763666
 H        -3.037894         0.485232         0.988965
 H        -3.686648         1.652474        -0.270474
 H        -1.456540         2.210250        -0.846232
 H         0.655770         1.529408         0.851394
 H        -0.618713         0.448163         1.498508
 H        -0.758666        -0.682990        -0.802789
 H        -1.070408         3.590727         2.018962
