19
Iteration:  4531charge 0 multiplicity 1
 O        -3.124150         4.949775         2.051379
 C        -2.187732         4.091886         1.197943
 C        -3.158125         3.114916         0.524128
 C        -2.542154         2.109821        -0.375458
 C        -1.430784         1.850415         0.714660
 C        -0.921089         0.393567         1.062367
 C        -0.242185        -0.309987        -0.111541
 O         0.991380        -0.514371        -0.325630
 C        -2.242375         2.685818         1.758771
 H        -2.693045         5.013595         2.913651
 H        -1.304758         4.613886         0.820750
 H        -4.146030         3.454501         0.673947
 H        -3.287746         1.167432        -0.362313
 H        -2.372419         2.551346        -1.391895
 H        -0.433643         2.325219         0.457712
 H        -0.120577         0.568127         1.773923
 H        -1.745172        -0.246667         1.614220
 H        -0.983845        -0.399338        -0.922704
 H        -2.387601         2.331783         2.790523
