19
Iteration:  2572charge 0 multiplicity 1
 O        -3.522523         4.323141         0.369879
 C        -3.315023         2.986518         0.919377
 C        -2.361121         3.015295         2.064035
 C        -1.943361         1.740052         2.664468
 C        -1.559228         1.185310         1.185447
 C        -0.152126         0.819940         1.016538
 C         0.250257         0.541804        -0.429151
 O        -0.162446         1.116003        -1.415486
 C        -1.889485         2.580654         0.719312
 H        -3.592384         4.091881        -0.565977
 H        -4.202064         2.341519         0.835688
 H        -2.401634         4.045570         2.600052
 H        -0.980258         1.759363         3.113768
 H        -2.659351         1.131120         3.327652
 H        -2.179625         0.497691         0.566874
 H         0.591546         1.556477         1.421490
 H         0.112043        -0.062422         1.665964
 H         1.009688        -0.314512        -0.616867
 H        -1.439250         3.113281        -0.137226
