19
Iteration:  2094charge 0 multiplicity 1
 O        -3.884713         4.723841         1.184752
 C        -3.430182         3.379975         1.139457
 C        -2.326948         3.085564         2.076674
 C        -2.160217         1.547572         2.202969
 C        -1.705133         1.492252         0.728086
 C        -0.296260         0.921116         0.687833
 C         0.227978         0.586199        -0.740567
 O         0.931813        -0.362292        -1.027328
 C        -2.035530         3.037832         0.585475
 H        -4.305318         4.896273         0.301310
 H        -4.309585         2.613913         0.978951
 H        -1.934313         3.693928         2.966989
 H        -1.320785         1.457685         2.894988
 H        -2.981689         0.985345         2.620680
 H        -2.228633         1.011897        -0.135320
 H         0.484512         1.577076         1.239028
 H        -0.210924        -0.071468         1.356798
 H        -0.056115         1.457946        -1.499776
 H        -1.487837         3.570268        -0.209739
