19
Iteration:    64charge 0 multiplicity 1
 O        -3.556837         4.820832         1.556739
 C        -2.641435         3.930285         1.073788
 C        -3.084124         2.507900         0.968476
 C        -2.268418         1.684823         0.084553
 C        -1.017348         2.104595         0.829807
 C        -0.268209         0.879464         1.198171
 C         0.161810         0.337378        -0.170983
 O        -0.131413        -0.755630        -0.569752
 C        -1.868429         2.898789         1.818719
 H        -3.279369         5.653126         1.172415
 H        -2.140113         4.305683         0.197641
 H        -4.102644         2.295085         1.263414
 H        -2.516441         0.678827         0.235989
 H        -2.263839         1.630355        -1.035034
 H        -0.311988         2.782582         0.254068
 H         0.674315         1.175881         1.649523
 H        -0.832133         0.101434         1.706337
 H         1.131589         0.930320        -0.522224
 H        -1.857141         2.855479         2.878965
