19
Iteration:  1931charge 0 multiplicity 1
 O        -3.481862         4.737930         0.737324
 C        -3.321561         3.276919         0.975152
 C        -2.336837         2.955032         2.187488
 C        -2.257259         1.441557         2.337403
 C        -1.761541         1.381551         0.844305
 C        -0.224825         0.743935         0.910649
 C         0.116420         0.101603        -0.340503
 O         0.484337         0.728618        -1.340369
 C        -1.899012         2.950306         0.712734
 H        -3.477559         4.729255        -0.229799
 H        -4.205786         2.680774         0.742334
 H        -2.214695         3.749494         2.893307
 H        -1.570183         1.069342         3.022589
 H        -3.325709         1.049553         2.521153
 H        -2.253633         0.664131         0.080838
 H         0.492760         1.471242         1.017010
 H        -0.225616         0.050556         1.707559
 H        -0.066284        -0.971463        -0.504002
 H        -1.292243         3.454561         0.046022
