19
Iteration:  3422
 O        -3.472411         4.892101         1.306781
 C        -3.071331         3.505274         0.955750
 C        -2.717873         2.754332         2.154345
 C        -2.586277         1.279333         1.692828
 C        -1.367202         1.679793         0.603165
 C         0.061784         1.141225         0.730965
 C         0.407998         0.090521        -0.324853
 O        -0.245669        -0.155489        -1.309275
 C        -1.622142         3.083981         1.123575
 H        -3.356803         5.462192         0.553603
 H        -3.847375         3.197914         0.192078
 H        -3.066561         3.334595         3.071633
 H        -2.218819         0.527169         2.381037
 H        -3.415647         0.828419         0.937462
 H        -1.761801         1.488473        -0.484942
 H         0.708422         2.046138         0.589377
 H         0.259893         0.947253         1.780404
 H         1.382181        -0.306644        -0.125263
 H        -0.793424         3.863195         1.108251
