19
Iteration:  4639charge 0 multiplicity 1
 O        -3.093693         4.860889         2.115637
 C        -2.312559         4.152251         1.249255
 C        -3.071009         3.035161         0.654010
 C        -2.438783         2.122753        -0.457097
 C        -1.253653         1.737533         0.514862
 C        -1.264284         0.303220         0.898210
 C        -0.200989        -0.467882         0.184457
 O         0.803020        -0.076038        -0.292539
 C        -1.928894         2.720039         1.648640
 H        -2.603309         5.214219         2.840800
 H        -1.450609         4.721134         0.685535
 H        -4.131588         3.110060         0.854838
 H        -3.315623         1.366873        -0.623688
 H        -2.207700         2.618222        -1.441412
 H        -0.248404         1.794294         0.168331
 H        -1.194005         0.240415         1.962647
 H        -2.262695        -0.172852         0.680733
 H        -0.584831        -1.546222        -0.073072
 H        -1.999574         2.459181         2.703636
