19
Iteration:  2018
 O        -3.730162         4.748279         0.946504
 C        -3.397541         3.318481         1.091456
 C        -2.503093         2.976317         2.225135
 C        -2.184468         1.474855         2.316184
 C        -1.698945         1.576321         0.775673
 C        -0.341796         0.998099         0.637878
 C        -0.030956         0.233973        -0.679572
 O         1.049131        -0.008145        -1.174211
 C        -1.945317         3.083702         0.801865
 H        -3.538778         5.058163         0.070803
 H        -4.175237         2.541343         0.815672
 H        -2.282284         3.751184         2.969423
 H        -1.265415         1.375275         2.832563
 H        -2.893433         0.645893         2.823605
 H        -2.278196         1.012438         0.070461
 H         0.538926         1.588699         0.674524
 H        -0.124229         0.231363         1.467837
 H        -0.928622        -0.054190        -1.203175
 H        -1.240517         3.665819         0.282234
