19
Iteration:  4156
 O        -3.377740         4.830047         2.043177
 C        -2.769086         4.027723         1.033426
 C        -3.095394         2.572915         0.959996
 C        -2.489041         1.673730        -0.084175
 C        -1.012477         2.089463         0.511590
 C        -0.198432         0.906199         1.181397
 C         0.336982        -0.040268         0.066500
 O        -0.310928        -0.645946        -0.745250
 C        -1.811101         2.969100         1.581173
 H        -2.786017         5.485933         2.459599
 H        -2.355179         4.665996         0.305772
 H        -3.989218         2.212319         1.537548
 H        -2.758846         0.585247         0.082167
 H        -2.568700         1.978445        -1.174497
 H        -0.423722         2.636124        -0.152220
 H         0.767074         1.228718         1.694078
 H        -0.649093         0.368143         2.067582
 H         1.496557         0.001082        -0.000609
 H        -1.599622         3.079781         2.631106
