19
Iteration:   652charge 0 multiplicity 1
 O        -3.369039         5.093970         1.342563
 C        -2.840938         3.844323         0.871889
 C        -3.156950         2.585128         1.641975
 C        -2.840112         1.391461         0.776324
 C        -1.407423         1.867534         0.573644
 C        -0.400220         0.729529         0.844835
 C        -0.044579        -0.197286        -0.204784
 O         1.041010        -0.018748        -0.728611
 C        -1.770486         2.996719         1.657288
 H        -2.709249         5.648115         1.754648
 H        -2.892369         3.839180        -0.162329
 H        -4.123808         2.671865         2.182619
 H        -3.045876         0.525411         1.358581
 H        -3.580978         1.257229        -0.125910
 H        -1.151070         2.273950        -0.440709
 H         0.593306         1.015312         1.110586
 H        -0.864565         0.197618         1.752556
 H        -0.547501        -1.148719        -0.357843
 H        -1.196018         3.511845         2.376627
