19
Iteration:  2109charge 0 multiplicity 1
 O        -3.799370         4.697050         1.154068
 C        -3.468449         3.337765         1.188985
 C        -2.336246         3.050849         2.052221
 C        -2.119736         1.591215         2.190652
 C        -1.726609         1.445681         0.672840
 C        -0.231024         0.932680         0.675896
 C         0.300992         0.704364        -0.643565
 O         0.792123        -0.349165        -1.008699
 C        -2.053444         2.985656         0.526841
 H        -4.224433         4.937314         0.292830
 H        -4.303319         2.650368         1.169057
 H        -1.979344         3.881468         2.613945
 H        -1.370745         1.142448         2.818656
 H        -3.078874         0.922540         2.443559
 H        -2.375833         0.692042         0.318216
 H         0.372001         1.674672         1.161058
 H        -0.222901        -0.026886         1.261558
 H         0.200979         1.594629        -1.380521
 H        -1.599155         3.968586         0.198248
