19
Iteration:  1968charge 0 multiplicity 1
 O        -3.616273         4.737019         0.933319
 C        -3.266103         3.363349         0.944364
 C        -2.430123         2.996411         2.124322
 C        -2.371544         1.495214         2.395055
 C        -1.769080         1.374189         0.859088
 C        -0.205626         0.944760         0.814236
 C         0.068582         0.116885        -0.444707
 O         0.784246         0.382691        -1.410864
 C        -1.856252         2.900042         0.735542
 H        -4.004946         5.159876         0.129319
 H        -4.018176         2.671149         0.608093
 H        -2.426541         3.802235         2.900974
 H        -1.704091         0.990398         3.130999
 H        -3.280664         1.038033         2.496109
 H        -2.485417         0.721880         0.254838
 H         0.450984         1.881488         0.837765
 H         0.163701         0.296740         1.636390
 H        -0.566628        -0.756509        -0.430198
 H        -1.160039         3.596821         0.115813
