19
Iteration:  2670
 O        -3.667076         4.402438         0.536706
 C        -3.243741         3.129357         0.946249
 C        -2.337674         3.050366         2.111233
 C        -2.061340         1.620630         2.520738
 C        -1.564158         1.269032         1.034378
 C        -0.165530         0.846569         0.988979
 C         0.403051         0.868853        -0.429355
 O        -0.183713         0.435479        -1.397797
 C        -1.783455         2.723365         0.691835
 H        -3.870545         4.342521        -0.388915
 H        -3.988481         2.400435         0.868805
 H        -1.867005         3.925837         2.679635
 H        -1.446958         1.494528         3.343236
 H        -3.095360         1.133796         2.938413
 H        -2.227369         0.567322         0.590239
 H         0.555926         1.612774         1.533328
 H        -0.046722        -0.158291         1.443622
 H         1.337022         1.456516        -0.551972
 H        -1.048343         3.318421         0.114604
