19
Iteration:  1664charge 0 multiplicity 1
 O        -3.510670         4.801486         0.904153
 C        -3.291397         3.408249         1.045297
 C        -2.495745         2.968799         2.126154
 C        -2.370412         1.418269         2.117902
 C        -1.576950         1.335612         0.770735
 C        -0.138777         0.931521         0.911009
 C         0.499002         0.254908        -0.282461
 O         0.002533         0.273594        -1.380172
 C        -1.773272         2.926202         0.703907
 H        -3.184759         5.025532         0.030508
 H        -4.177462         2.791121         0.644581
 H        -2.331327         3.574825         3.032632
 H        -1.850926         1.024570         3.114401
 H        -3.284945         0.755501         2.102278
 H        -2.183409         0.904829        -0.139675
 H         0.388286         1.851199         1.326464
 H        -0.125828        -0.039533         1.601351
 H         1.482604        -0.160690         0.127164
 H        -1.165760         3.755060         0.237498
