19
Iteration:  1420charge 0 multiplicity 1
 O        -3.737309         4.579593         1.563657
 C        -3.141764         3.507883         0.988526
 C        -2.506596         2.597779         1.950035
 C        -2.355671         1.200040         1.212788
 C        -1.383646         2.020837         0.315013
 C         0.186271         1.513094         0.323175
 C         0.111281         0.058124         0.277605
 O        -0.106700        -0.451306        -0.811145
 C        -1.593746         3.391239         0.913763
 H        -3.921643         5.315071         0.975317
 H        -3.644574         3.130993         0.131511
 H        -2.761509         2.771503         3.074229
 H        -1.727153         0.521429         1.974051
 H        -3.287072         0.816565         0.812369
 H        -1.672316         2.003537        -0.725900
 H         0.722108         2.056476        -0.394359
 H         0.418495         1.797178         1.384406
 H         0.159204        -0.640337         1.192054
 H        -0.912900         4.281314         0.973768
