19
Iteration:  3761charge 0 multiplicity 1
 O        -3.227767         4.915364         2.059070
 C        -3.019611         3.872141         1.056616
 C        -3.200615         2.504784         1.537577
 C        -2.784944         1.500424         0.514065
 C        -1.428308         2.131023         0.171150
 C        -0.163671         1.324518         0.409802
 C        -0.121876        -0.082019        -0.206222
 O         0.834667        -0.872486        -0.225163
 C        -1.715879         3.124114         1.272515
 H        -2.459899         5.526998         1.807521
 H        -3.237872         4.228341         0.012482
 H        -3.900348         2.218499         2.417180
 H        -2.829610         0.428343         0.911767
 H        -3.386721         1.430297        -0.429729
 H        -1.468983         2.461401        -0.789767
 H         0.759833         1.749953         0.153378
 H        -0.064819         1.000577         1.466496
 H        -1.128922        -0.291946        -0.645139
 H        -1.075366         3.632348         1.929912
