19
Iteration:  2629
 O        -3.547842         4.343600         0.456160
 C        -3.202631         3.077422         0.952444
 C        -2.231744         3.030273         2.019653
 C        -2.116475         1.591963         2.464106
 C        -1.526252         1.196609         1.159977
 C        -0.044304         0.856527         1.073029
 C         0.380072         0.863630        -0.387448
 O        -0.455892         0.783754        -1.274514
 C        -1.862548         2.600515         0.589137
 H        -3.627400         4.258813        -0.517795
 H        -4.025499         2.306634         0.792068
 H        -1.786423         3.937805         2.394113
 H        -1.397865         1.351041         3.309288
 H        -2.949159         0.954475         2.717130
 H        -1.953985         0.394308         0.526007
 H         0.358465         1.713964         1.556121
 H         0.161907        -0.107619         1.625678
 H         1.512491         0.840584        -0.553132
 H        -1.337652         3.319872        -0.038386
