19
Iteration:  2039charge 0 multiplicity 1
 O        -3.817469         4.686560         0.993989
 C        -3.327872         3.360638         1.079574
 C        -2.472523         3.074649         2.298902
 C        -2.101119         1.523826         2.304942
 C        -1.745545         1.469991         0.768667
 C        -0.396596         0.979923         0.452856
 C        -0.010695         0.341412        -0.844343
 O         1.091177        -0.131506        -1.001105
 C        -1.913509         3.136686         0.824688
 H        -3.769654         4.946111         0.029737
 H        -4.139052         2.599322         0.726161
 H        -2.421994         3.813500         3.114171
 H        -1.384349         1.242907         3.068029
 H        -2.993430         0.841850         2.576714
 H        -2.426536         0.957836         0.126281
 H         0.352637         1.691306         0.898140
 H        -0.158912         0.076689         1.215172
 H        -0.916944         0.121946        -1.453375
 H        -1.210953         3.776742         0.377622
