19
Iteration:  1808charge 0 multiplicity 1
 O        -3.246016         4.509285         0.296961
 C        -3.087085         3.134668         0.794375
 C        -2.202788         3.070722         2.041941
 C        -2.222087         1.580777         2.575617
 C        -1.855689         1.074902         1.151028
 C        -0.462602         0.235061         0.996262
 C         0.208866         0.632228        -0.371037
 O        -0.162367         1.457396        -1.203288
 C        -1.651137         2.541476         0.776634
 H        -2.876043         4.690224        -0.584111
 H        -3.982844         2.446393         0.754100
 H        -1.977105         3.858250         2.758163
 H        -1.463801         1.321173         3.357855
 H        -3.173569         1.498395         3.154571
 H        -2.729187         0.581328         0.504081
 H         0.077923         0.369178         1.901793
 H        -0.693357        -0.821987         0.810518
 H         1.177276         0.025961        -0.680312
 H        -0.887083         2.963814         0.111682
