19
Iteration:  3241charge 0 multiplicity 1
 O        -3.132981         4.853367         0.856870
 C        -3.118572         3.440611         0.983089
 C        -2.371233         2.911438         2.148035
 C        -2.518056         1.438920         2.321158
 C        -1.898634         1.151006         0.974431
 C        -0.399883         0.477002         0.902640
 C         0.408875         0.518529        -0.350751
 O         0.074260         0.816261        -1.515049
 C        -1.837053         2.648605         0.601440
 H        -2.696902         5.007182        -0.032052
 H        -4.080859         3.000656         0.754999
 H        -2.044629         3.722894         2.869512
 H        -1.911398         0.964419         3.242841
 H        -3.543287         1.030478         2.572777
 H        -2.482221         0.561475         0.187356
 H         0.153091         0.839269         1.737700
 H        -0.572672        -0.497879         1.245085
 H         1.433533         0.085450        -0.115276
 H        -0.827134         3.165239         0.271492
