19
Iteration:  4689
 O        -2.872896         4.954595         2.200382
 C        -2.275404         3.999548         1.250263
 C        -3.204199         3.078924         0.501698
 C        -2.423635         2.281152        -0.565778
 C        -1.503556         1.880214         0.607339
 C        -1.088340         0.385748         1.067558
 C         0.021653        -0.435647         0.393074
 O         0.778410        -0.254403        -0.574068
 C        -2.352843         2.479310         1.580176
 H        -2.349826         4.954431         3.030823
 H        -1.468302         4.387232         0.736948
 H        -4.228432         3.365087         0.357062
 H        -3.034620         1.531084        -0.942577
 H        -2.019128         2.934400        -1.334155
 H        -0.429886         2.320446         0.556752
 H        -0.902457         0.433395         2.184904
 H        -1.930818        -0.281390         1.003401
 H         0.203158        -1.512282         0.967704
 H        -2.708204         2.228192         2.629135
