19
Iteration:   494
 O        -3.427336         5.036409         1.732257
 C        -3.029400         3.875833         0.922497
 C        -3.118065         2.519511         1.461433
 C        -2.767709         1.438445         0.367757
 C        -1.225617         1.990067         0.375234
 C        -0.338953         0.977564         1.055362
 C         0.196379        -0.220304         0.234683
 O         0.617983        -0.328238        -0.911760
 C        -1.743300         3.041688         1.440350
 H        -2.820543         5.740719         1.498151
 H        -3.113232         4.051959        -0.158779
 H        -3.779348         2.358990         2.335942
 H        -2.855654         0.399517         0.914354
 H        -3.085678         1.582894        -0.720974
 H        -0.656157         2.311618        -0.584730
 H         0.713220         1.379937         1.269534
 H        -0.621487         0.692482         2.032364
 H         0.388506        -1.164800         0.859303
 H        -1.219622         3.434093         2.345848
