19
Iteration:  2499charge 0 multiplicity 1
 O        -3.951333         4.200802         0.653508
 C        -3.293696         3.013919         0.949839
 C        -2.143104         3.194796         1.950634
 C        -1.947083         1.828515         2.572828
 C        -1.601893         1.329346         1.061433
 C        -0.362455         0.482661         0.989601
 C         0.222603         0.353653        -0.412850
 O         0.257312         1.151420        -1.318307
 C        -1.774467         2.794395         0.499452
 H        -4.326597         4.182490        -0.282281
 H        -3.846973         2.047847         0.949046
 H        -1.961390         4.229848         2.445912
 H        -0.874402         1.881541         3.144574
 H        -2.759978         1.436107         3.081715
 H        -2.440492         0.736121         0.668996
 H         0.416523         0.945670         1.634987
 H        -0.482217        -0.376172         1.675659
 H         0.972710        -0.470051        -0.657326
 H        -1.128824         3.404467        -0.189926
