19
Iteration:  4055charge 0 multiplicity 1
 O        -3.147000         4.975658         1.766167
 C        -2.764294         3.973596         0.921629
 C        -3.317744         2.693611         1.326199
 C        -2.781035         1.592321         0.312508
 C        -1.275001         1.806671         0.574097
 C        -0.456429         0.617870         1.113954
 C         0.161675        -0.337351         0.115185
 O         0.460703         0.014794        -0.982898
 C        -1.708558         2.987583         1.538956
 H        -2.411863         5.594176         1.728188
 H        -2.641867         4.232207        -0.122231
 H        -4.069763         2.642598         2.075394
 H        -3.131268         0.630567         0.618984
 H        -3.115718         1.836724        -0.803636
 H        -0.752488         2.112755        -0.274035
 H         0.444911         0.852374         1.803108
 H        -1.131448         0.029535         1.825109
 H         0.236062        -1.360573         0.508264
 H        -1.062834         3.174145         2.484082
