19
Iteration:  1738charge 0 multiplicity 1
 O        -3.298948         4.743850         0.563500
 C        -3.242942         3.317642         0.928420
 C        -2.312482         2.976898         2.098270
 C        -2.288172         1.508460         2.430163
 C        -1.689749         1.171335         1.021525
 C        -0.345811         0.455183         0.984075
 C         0.430772         0.538550        -0.324197
 O        -0.060372         0.901468        -1.362224
 C        -1.839910         2.692421         0.683621
 H        -3.576297         4.645502        -0.372463
 H        -4.128602         2.672823         0.725800
 H        -2.118090         3.857563         2.731472
 H        -1.748945         1.108527         3.353511
 H        -3.226758         1.014661         2.507964
 H        -2.437298         0.577887         0.404076
 H         0.356599         0.916100         1.638183
 H        -0.539169        -0.567357         1.302175
 H         1.448744        -0.015399        -0.124198
 H        -1.148827         3.168463        -0.082879
