19
Iteration:  1444
 O        -3.769465         4.678983         1.473868
 C        -3.235582         3.503631         0.983809
 C        -2.605781         2.630530         2.011321
 C        -2.155901         1.331040         1.342848
 C        -1.324226         2.003867         0.301472
 C         0.158556         1.520598         0.496190
 C         0.166870        -0.010704         0.137029
 O        -0.125105        -0.553049        -0.948297
 C        -1.691343         3.318579         0.973441
 H        -3.672242         5.412386         0.868950
 H        -3.864135         3.075238         0.154359
 H        -2.927920         2.763659         3.040042
 H        -1.569092         0.597316         2.076671
 H        -3.068289         0.951067         0.961930
 H        -1.524785         2.094750        -0.796799
 H         0.773301         2.115602        -0.177753
 H         0.362917         1.624995         1.546639
 H         0.775686        -0.708384         0.810519
 H        -1.068067         4.062595         1.355039
