19
Iteration:   198charge 0 multiplicity 1
 O        -3.580407         4.919053         1.932486
 C        -2.955301         3.972966         0.947798
 C        -3.112797         2.479888         1.124708
 C        -2.462552         1.731404         0.018463
 C        -1.094518         2.054675         0.301711
 C        -0.339599         0.988689         1.095527
 C         0.498167        -0.044747         0.251809
 O         0.057565        -0.803496        -0.576045
 C        -1.688698         3.121410         1.449672
 H        -2.868496         5.237847         2.515307
 H        -2.895574         4.454667        -0.006959
 H        -3.915534         2.141620         1.853483
 H        -2.561872         0.619019         0.064024
 H        -2.865351         2.064881        -1.017855
 H        -0.667905         2.475034        -0.597598
 H         0.314509         1.423736         1.816148
 H        -1.062083         0.416448         1.687243
 H         1.597953        -0.085121         0.490287
 H        -1.183461         3.325464         2.435204
