19
Iteration:  1184
 O        -3.771553         4.770536         1.404456
 C        -3.142350         3.612628         0.937253
 C        -2.840515         2.371603         1.834200
 C        -2.306093         1.269976         1.113573
 C        -1.182961         2.042143         0.530152
 C         0.265156         1.466333         0.422756
 C         0.380995         0.264124        -0.442785
 O        -0.318806        -0.703677        -0.418829
 C        -1.644202         3.291997         1.419868
 H        -3.757926         5.489073         0.715098
 H        -3.540424         3.515918        -0.058068
 H        -3.192111         2.303867         2.915421
 H        -1.964452         0.569386         1.981175
 H        -2.897949         0.606758         0.369690
 H        -1.359592         2.312550        -0.591456
 H         1.052278         2.234504         0.204194
 H         0.504555         1.135944         1.474030
 H         0.959995         0.450529        -1.275231
 H        -1.070197         4.055064         1.939045
