19
Iteration:  1424charge 0 multiplicity 1
 O        -3.744595         4.595421         1.558220
 C        -3.132026         3.487667         0.956868
 C        -2.516449         2.607420         1.964212
 C        -2.357189         1.194632         1.253115
 C        -1.327554         2.072454         0.312506
 C         0.140057         1.507595         0.382987
 C         0.147186         0.054788         0.240389
 O        -0.118343        -0.477366        -0.846265
 C        -1.629432         3.408456         0.966961
 H        -3.899468         5.342242         0.928560
 H        -3.650761         3.023576         0.035174
 H        -2.601904         2.823371         3.004697
 H        -1.695633         0.633682         1.902709
 H        -3.243809         0.776130         0.784723
 H        -1.659895         1.778929        -0.759638
 H         0.744525         1.958604        -0.462938
 H         0.378175         1.755002         1.372442
 H         0.199963        -0.646551         1.165841
 H        -0.998949         4.246665         0.924150
