19
Iteration:  3421charge 0 multiplicity 1
 O        -3.472609         4.892717         1.300681
 C        -3.065670         3.507308         0.967242
 C        -2.727904         2.760411         2.157417
 C        -2.586456         1.284183         1.689992
 C        -1.372446         1.676654         0.611885
 C         0.062624         1.140852         0.735328
 C         0.416405         0.088558        -0.335547
 O        -0.245020        -0.161909        -1.322056
 C        -1.618519         3.088332         1.127061
 H        -3.364605         5.444878         0.554529
 H        -3.848291         3.190027         0.203247
 H        -3.089522         3.338783         3.072818
 H        -2.216700         0.569378         2.392881
 H        -3.426307         0.823474         0.941285
 H        -1.764967         1.436127        -0.505746
 H         0.681348         2.061977         0.613608
 H         0.277387         0.953476         1.839096
 H         1.413054        -0.301926        -0.123398
 H        -0.815164         3.823525         1.105280
