19
Iteration:  4022
 O        -3.094173         4.976950         1.586064
 C        -2.635886         3.903904         0.911658
 C        -3.212730         2.601681         1.411571
 C        -2.846723         1.451364         0.425388
 C        -1.330609         1.811772         0.565371
 C        -0.585035         0.619498         1.111358
 C        -0.077092        -0.191506         0.019167
 O         0.572598         0.234747        -0.884930
 C        -1.585041         2.899007         1.609646
 H        -2.546448         5.732482         1.397226
 H        -2.440482         4.034702        -0.131576
 H        -3.924500         2.696974         2.178092
 H        -3.012810         0.463298         0.808334
 H        -3.376885         1.398843        -0.678846
 H        -0.881070         2.100668        -0.327241
 H         0.251138         0.913092         1.873150
 H        -1.385839         0.028768         1.673297
 H        -0.413126        -1.287234        -0.006859
 H        -0.951251         2.993942         2.554533
