19
Iteration:  2663
 O        -3.640082         4.381195         0.501939
 C        -3.241601         3.142650         0.959984
 C        -2.263385         3.049312         2.111440
 C        -2.114211         1.562230         2.512211
 C        -1.581451         1.274040         1.040953
 C        -0.147365         0.837846         1.017073
 C         0.401471         0.913320        -0.424661
 O        -0.238534         0.471099        -1.361915
 C        -1.793259         2.737169         0.677816
 H        -3.900149         4.317851        -0.413398
 H        -3.943638         2.240914         0.831846
 H        -1.957321         3.906552         2.561280
 H        -1.124336         1.502162         3.144017
 H        -3.026438         1.187242         2.909517
 H        -2.215037         0.508069         0.502156
 H         0.392480         1.500474         1.640224
 H         0.149293        -0.148635         1.515686
 H         1.431658         1.338791        -0.598217
 H        -1.218074         3.412206         0.093644
