19
Iteration:  2555charge 0 multiplicity 1
 O        -3.632855         4.243115         0.354678
 C        -3.298107         3.038395         0.959040
 C        -2.382861         3.163239         2.156497
 C        -1.900151         1.689045         2.609424
 C        -1.636030         1.283580         1.199019
 C        -0.124222         0.677142         0.946264
 C         0.272959         0.444484        -0.452157
 O        -0.050985         1.152795        -1.385044
 C        -1.901080         2.675940         0.650750
 H        -3.730392         4.214288        -0.588407
 H        -4.087703         2.206604         1.014160
 H        -2.078900         4.060975         2.637137
 H        -1.020955         1.817243         3.395647
 H        -2.562836         1.089073         3.156360
 H        -2.290679         0.415629         0.962675
 H         0.493687         1.395541         1.469542
 H        -0.120210        -0.288802         1.450004
 H         0.891522        -0.461723        -0.587995
 H        -1.259846         3.178959        -0.091353
