19
Iteration:  2761charge 0 multiplicity 1
 O        -3.857845         4.512256         0.876525
 C        -3.354735         3.223805         1.026832
 C        -2.356427         3.140031         2.195399
 C        -2.138526         1.550356         2.272716
 C        -1.600107         1.441649         0.858311
 C        -0.141946         0.921635         0.816823
 C         0.402947         0.845800        -0.591771
 O         0.255335        -0.170544        -1.231417
 C        -1.812374         2.990570         0.729958
 H        -4.068586         4.603776        -0.074875
 H        -4.065079         2.440022         0.854054
 H        -2.220318         3.882440         2.920337
 H        -1.375795         1.155721         2.984246
 H        -3.108718         0.984494         2.482565
 H        -2.089397         0.908898         0.064305
 H         0.493937         1.553018         1.450141
 H        -0.102798        -0.103848         1.375461
 H         1.080753         1.681903        -0.953951
 H        -1.223841         3.646598         0.056436
