19
Iteration:  2489
 O        -3.931741         4.223748         0.681990
 C        -3.323912         3.022839         0.960335
 C        -2.207099         3.179903         1.889797
 C        -1.864689         1.850691         2.504789
 C        -1.661827         1.313030         1.057560
 C        -0.354727         0.526267         0.928071
 C         0.289488         0.316744        -0.367577
 O         0.255278         1.152466        -1.264530
 C        -1.754421         2.812855         0.555631
 H        -4.386427         4.079013        -0.195643
 H        -4.043589         2.270907         1.067668
 H        -2.093727         4.177167         2.430833
 H        -0.881133         1.636872         3.134304
 H        -2.617749         1.377846         3.105277
 H        -2.476152         0.790496         0.625908
 H         0.494884         1.101198         1.483348
 H        -0.444207        -0.515317         1.270744
 H         0.853392        -0.725391        -0.340963
 H        -1.388612         3.145853        -0.434779
