19
Iteration:  4193charge 0 multiplicity 1
 O        -3.535884         4.640193         1.880709
 C        -2.656458         3.959571         1.043196
 C        -2.974289         2.460943         1.038106
 C        -2.280938         1.866608        -0.141083
 C        -0.942720         2.276189         0.631645
 C        -0.207748         0.943888         1.064566
 C         0.197510         0.084962        -0.088268
 O        -0.515309        -0.751994        -0.524713
 C        -1.718976         2.959485         1.749356
 H        -2.845328         5.284668         2.239257
 H        -2.094254         4.469077         0.199151
 H        -3.925238         2.159639         1.385385
 H        -2.430821         0.752749        -0.240433
 H        -2.522593         2.322155        -1.085417
 H        -0.265815         2.874510        -0.000293
 H         0.802373         1.088026         1.475838
 H        -1.030824         0.527991         1.642228
 H         1.259654         0.263203        -0.495797
 H        -1.480404         2.992950         2.841532
