19
Iteration:  2610charge 0 multiplicity 1
 O        -3.539591         4.382302         0.455637
 C        -3.263882         3.037834         0.843030
 C        -2.273694         3.011251         1.997006
 C        -2.109826         1.621459         2.616386
 C        -1.552391         1.135465         1.168373
 C         0.019959         0.914825         1.060513
 C         0.342143         0.710221        -0.404734
 O        -0.417627         0.947605        -1.338190
 C        -1.802906         2.523221         0.620124
 H        -3.530660         4.534783        -0.482924
 H        -4.262373         2.382206         0.999510
 H        -2.244470         3.867249         2.543721
 H        -1.310692         1.553548         3.529525
 H        -3.078013         1.390343         2.936063
 H        -2.016761         0.137914         0.689143
 H         0.591657         1.744514         1.480945
 H         0.299672        -0.017584         1.556503
 H         1.425163         0.458799        -0.565209
 H        -1.219554         2.832829        -0.212228
