19
Iteration:  1836charge 0 multiplicity 1
 O        -3.178605         4.527807         0.306330
 C        -3.167275         3.208245         0.887173
 C        -2.347649         3.076454         2.108705
 C        -2.200193         1.498432         2.541129
 C        -1.719167         1.217854         1.152099
 C        -0.427877         0.243589         0.982322
 C         0.181985         0.462907        -0.459684
 O        -0.101228         1.427675        -1.133430
 C        -1.743538         2.593126         0.641615
 H        -3.359527         4.402177        -0.668267
 H        -4.015953         2.512410         0.786373
 H        -1.842234         3.779871         2.718710
 H        -1.442256         1.338591         3.373941
 H        -3.196670         1.177944         2.807017
 H        -2.497095         0.799900         0.645336
 H         0.265774         0.636943         1.833047
 H        -0.658560        -0.837479         1.220020
 H         0.995632        -0.212755        -0.748855
 H        -1.015806         3.146187         0.191572
