19
Iteration:  3723charge 0 multiplicity 1
 O        -3.457209         4.771239         2.013306
 C        -2.942395         3.839871         1.079832
 C        -2.948957         2.451317         1.593760
 C        -2.646741         1.499331         0.486967
 C        -1.321358         2.201892         0.102132
 C        -0.142529         1.355756         0.317106
 C        -0.201481         0.022132        -0.300904
 O         0.532722        -0.913395        -0.028949
 C        -1.623120         3.170511         1.314118
 H        -2.978293         5.623157         1.886837
 H        -3.110452         4.088266         0.049002
 H        -3.324009         2.230756         2.555658
 H        -2.565303         0.503271         0.819570
 H        -3.281709         1.591626        -0.385096
 H        -1.323775         2.802526        -0.871574
 H         0.799797         1.833689        -0.121893
 H         0.014797         1.338587         1.376863
 H        -1.001722        -0.179703        -0.967493
 H        -0.835961         3.513735         2.040350
