19
Iteration:  2829
 O        -3.624985         4.676504         0.991524
 C        -3.418627         3.274707         0.986250
 C        -2.555353         2.903413         2.222340
 C        -2.121076         1.395174         2.315307
 C        -1.676297         1.570724         0.821444
 C        -0.127085         1.173136         0.681781
 C         0.137204         0.754232        -0.789384
 O         0.624428        -0.351793        -1.014758
 C        -1.996917         2.977795         0.680549
 H        -3.773360         4.868580         0.075504
 H        -4.285809         2.665421         0.654731
 H        -2.383048         3.782328         2.982110
 H        -1.108284         1.379744         2.878115
 H        -2.949764         0.763134         2.534694
 H        -2.235166         0.895016         0.193022
 H         0.479121         1.938164         1.096019
 H         0.299012         0.173518         1.267974
 H         0.071358         1.486042        -1.625674
 H        -1.328640         3.841521         0.484750
