19
Iteration:  4443
 O        -3.288250         5.005141         2.101427
 C        -2.559454         4.032948         1.197045
 C        -3.235247         2.810434         0.692982
 C        -2.342417         2.302883        -0.434789
 C        -1.115543         2.014600         0.705443
 C        -0.834381         0.557236         0.942933
 C        -0.080363        -0.071312        -0.181445
 O         0.630589        -1.026596        -0.227459
 C        -1.968489         2.768452         1.759463
 H        -2.485459         5.288926         2.552365
 H        -2.001432         4.493836         0.424944
 H        -4.276521         2.624925         0.946795
 H        -2.708781         1.330020        -0.878428
 H        -2.310512         2.835746        -1.344001
 H        -0.180216         2.629495         0.424137
 H        -0.365619         0.312399         1.881936
 H        -1.763249        -0.036219         1.170828
 H        -0.013335         0.717130        -1.003662
 H        -2.051137         2.730033         2.903529
