19
Iteration:  2864
 O        -3.752564         4.743711         1.033146
 C        -3.364788         3.344698         1.088326
 C        -2.548454         2.981865         2.244871
 C        -2.277318         1.487653         2.316482
 C        -1.747120         1.482216         0.836093
 C        -0.112209         1.127462         0.580177
 C         0.162033         0.569027        -0.858232
 O         0.891601        -0.388624        -1.079529
 C        -1.989395         3.011201         0.729992
 H        -3.499404         4.958437         0.140593
 H        -4.311914         2.801614         0.791876
 H        -2.370439         3.680698         3.010267
 H        -1.400881         1.194504         3.029917
 H        -2.969381         0.850229         2.754300
 H        -2.407666         0.980642         0.116479
 H         0.320095         2.048393         0.726904
 H         0.163837         0.378156         1.387647
 H        -0.218065         1.228444        -1.675609
 H        -1.317371         3.727097         0.394907
