19
Iteration:  4801charge 0 multiplicity 1
 O        -3.234960         4.882911         1.835234
 C        -2.258349         4.041576         1.240328
 C        -2.825738         2.992613         0.429683
 C        -1.709637         2.214122        -0.357213
 C        -1.202941         1.747763         1.039142
 C        -1.177799         0.251338         1.184862
 C        -0.027402        -0.256734         0.320065
 O        -0.017478        -0.009589        -0.916745
 C        -2.278627         2.469105         1.862774
 H        -2.924094         5.260896         2.703626
 H        -1.306713         4.401902         0.983385
 H        -3.902838         2.988223         0.134775
 H        -2.049636         1.380361        -0.983611
 H        -1.105749         2.908025        -0.892575
 H        -0.178210         2.188890         1.309346
 H        -0.961582        -0.001704         2.256732
 H        -2.113327        -0.276526         0.893516
 H         0.767789        -0.902821         0.726731
 H        -2.750615         2.161213         2.744204
