19
Iteration:  4510charge 0 multiplicity 1
 O        -3.084829         5.031189         2.029863
 C        -2.310756         4.098982         1.385782
 C        -3.141326         3.148885         0.528713
 C        -2.543035         2.009777        -0.344899
 C        -1.418125         1.820852         0.666025
 C        -0.762175         0.529449         1.031318
 C        -0.200623        -0.156171        -0.170260
 O         0.926445        -0.689503        -0.303036
 C        -2.290305         2.618898         1.659857
 H        -2.783118         5.148044         2.983455
 H        -1.396605         4.381119         0.987364
 H        -4.175381         3.358501         0.628186
 H        -3.133015         1.044952        -0.287233
 H        -2.097503         2.114318        -1.318514
 H        -0.549336         2.573945         0.583929
 H        -0.100499         0.491715         1.889338
 H        -1.725007         0.065054         1.385331
 H        -1.074566        -0.252587        -0.939880
 H        -2.725534         2.342852         2.609526
