19
Iteration:  3753
 O        -3.265481         4.888677         2.046925
 C        -2.999979         3.866631         1.092183
 C        -3.126018         2.446152         1.553623
 C        -2.827842         1.463930         0.490952
 C        -1.388376         2.077414         0.110056
 C        -0.114964         1.311602         0.405684
 C        -0.114992         0.004364        -0.210921
 O         0.736239        -0.880439        -0.190013
 C        -1.700005         3.202109         1.304143
 H        -2.558940         5.558080         1.809040
 H        -3.185874         4.167145         0.009255
 H        -3.962341         2.388793         2.228726
 H        -2.766250         0.343919         0.890019
 H        -3.484429         1.528777        -0.407693
 H        -1.303777         2.584902        -0.925176
 H         0.790634         1.839011        -0.019091
 H         0.084096         1.379316         1.577307
 H        -1.183379        -0.388490        -0.600080
 H        -1.000508         3.566357         2.023207
