19
Iteration:  4621
 O        -3.074982         4.859667         2.082091
 C        -2.280783         4.065930         1.123058
 C        -3.130204         2.900804         0.728946
 C        -2.388164         2.231785        -0.391863
 C        -1.252750         1.793514         0.544497
 C        -1.321564         0.269316         0.905045
 C        -0.302006        -0.485115         0.030721
 O         0.763411        -0.014244        -0.169371
 C        -1.849364         2.740492         1.658412
 H        -2.456760         5.283325         2.657530
 H        -1.847942         4.582058         0.313429
 H        -4.165557         2.768057         1.131873
 H        -2.765414         1.323962        -0.867304
 H        -2.083359         2.906959        -1.210446
 H        -0.232789         2.173385         0.251600
 H        -0.942982        -0.014034         1.935106
 H        -2.375421        -0.006589         0.864623
 H        -0.395379        -1.507798        -0.295967
 H        -1.749638         2.363458         2.669715
