19
Iteration:   895
 O        -3.627577         4.854274         1.945359
 C        -3.086345         3.847380         1.055756
 C        -3.028091         2.482331         1.687530
 C        -2.663791         1.444338         0.438013
 C        -1.352144         2.224024         0.205198
 C        -0.089106         1.331955         0.193240
 C        -0.066920        -0.153540        -0.199991
 O         0.888976        -0.875306        -0.042514
 C        -1.720942         3.297041         1.302875
 H        -3.407181         5.760844         1.606857
 H        -3.410521         4.002865         0.067743
 H        -3.478905         2.442263         2.672777
 H        -2.342056         0.477628         0.944088
 H        -3.416182         1.158832        -0.399368
 H        -1.318303         2.655529        -0.838087
 H         0.863284         1.629134        -0.162267
 H         0.092009         1.088068         1.242121
 H        -0.941903        -0.702062        -0.569213
 H        -1.043610         3.711917         2.043629
