19
Iteration:  3993charge 0 multiplicity 1
 O        -2.973764         5.064891         1.468660
 C        -2.659871         3.860093         0.847990
 C        -3.189531         2.575663         1.518707
 C        -2.989044         1.434800         0.416311
 C        -1.407497         1.714363         0.686504
 C        -0.514165         0.557496         1.152494
 C        -0.131746        -0.206552        -0.105886
 O         0.682573         0.347493        -0.848681
 C        -1.715136         2.863652         1.669225
 H        -2.321024         5.743409         1.623383
 H        -2.520497         4.027564        -0.247170
 H        -3.946675         2.674765         2.275474
 H        -3.185060         0.350863         0.620642
 H        -3.410402         1.536998        -0.515316
 H        -0.895613         2.094858        -0.294112
 H         0.354311         1.089063         1.456911
 H        -0.888395         0.019074         2.020818
 H        -0.488796        -1.187240        -0.454908
 H        -1.057587         3.070201         2.579394
