19
Iteration:  2810
 O        -3.746012         4.660043         1.011337
 C        -3.331371         3.283182         0.976329
 C        -2.472914         2.944720         2.138553
 C        -2.152449         1.469119         2.236659
 C        -1.595128         1.424832         0.790203
 C        -0.114098         1.137240         0.716227
 C         0.204150         0.797121        -0.644524
 O         0.480007        -0.307125        -1.070801
 C        -1.861118         2.956733         0.733526
 H        -3.993898         4.751575         0.075311
 H        -4.245860         2.643369         0.666213
 H        -2.364713         3.606501         2.994322
 H        -1.380244         1.433304         3.128357
 H        -2.985701         0.799324         2.475982
 H        -2.180873         0.750347         0.102975
 H         0.348223         2.050647         1.095150
 H         0.076691         0.397774         1.461672
 H        -0.058485         1.645309        -1.354457
 H        -1.402325         3.699349         0.128991
