19
Iteration:  4875
 O        -3.582399         4.661980         1.890736
 C        -2.392135         4.059814         1.427947
 C        -2.641680         3.166185         0.322164
 C        -1.399337         2.551585        -0.380208
 C        -0.988500         1.979607         1.066861
 C        -0.761857         0.427831         1.301903
 C        -0.293043        -0.634181         0.236904
 O        -0.265106        -0.370691        -0.971956
 C        -2.292022         2.602945         1.675432
 H        -3.343235         4.795099         2.823973
 H        -1.463796         4.631125         1.414348
 H        -3.646942         3.367136        -0.127035
 H        -1.822961         1.675531        -0.873963
 H        -0.587747         3.089335        -0.924582
 H        -0.245978         2.551618         1.498836
 H         0.053431         0.330083         2.069824
 H        -1.622964         0.058670         1.818545
 H         0.029228        -1.573208         0.613952
 H        -2.911584         2.152094         2.375482
