19
Iteration:  4082charge 0 multiplicity 1
 O        -3.144838         5.059191         1.875879
 C        -2.677266         3.979024         0.990294
 C        -3.287237         2.547234         1.206661
 C        -2.779088         1.562769         0.160878
 C        -1.238154         1.855886         0.476369
 C        -0.470343         0.806952         1.151467
 C         0.271147        -0.226100         0.213301
 O         0.296254        -0.229625        -1.031872
 C        -1.818158         2.947465         1.604703
 H        -2.384455         5.584320         2.108258
 H        -2.465974         4.359730        -0.073116
 H        -3.974258         2.255578         2.039588
 H        -3.074670         0.442043         0.182180
 H        -3.087331         1.986133        -0.746972
 H        -0.644984         2.237998        -0.468091
 H         0.416088         1.134819         1.696352
 H        -1.108058         0.418665         1.938844
 H         0.978930        -0.889959         0.816180
 H        -1.411029         3.113449         2.563846
