19
Iteration:  3792
 O        -3.239969         4.994382         2.036030
 C        -2.961905         3.947421         1.011526
 C        -3.122070         2.553326         1.533637
 C        -2.927649         1.455819         0.537020
 C        -1.468600         2.073890         0.193220
 C        -0.344547         1.071318         0.558421
 C        -0.107425        -0.178718        -0.242627
 O         1.018840        -0.687840        -0.333588
 C        -1.699511         3.141586         1.284160
 H        -2.580632         5.660973         1.905470
 H        -3.112368         4.327321         0.014327
 H        -3.810565         2.389645         2.441047
 H        -2.832827         0.513993         1.002276
 H        -3.685108         1.480167        -0.251043
 H        -1.398270         2.353025        -0.900282
 H         0.630936         1.588639         0.504168
 H        -0.424301         0.691786         1.542825
 H        -0.922657        -0.616760        -0.854035
 H        -1.041543         3.508860         2.087957
