19
Iteration:  4300
 O        -3.588611         4.572689         2.184622
 C        -2.610625         4.051772         1.309046
 C        -3.017518         2.767958         0.677204
 C        -2.187687         2.165356        -0.473515
 C        -0.983792         2.259353         0.410371
 C        -0.126441         1.086274         0.867766
 C         0.026436         0.039378        -0.144450
 O        -0.307759        -1.146548         0.014551
 C        -1.829771         2.720003         1.631874
 H        -3.059603         4.871109         2.979935
 H        -2.071763         4.843101         0.792240
 H        -4.060126         2.465492         0.700864
 H        -2.506108         1.123675        -0.983557
 H        -2.059435         2.916406        -1.287470
 H        -0.170759         2.905736        -0.100132
 H         0.833883         1.259118         1.431892
 H        -0.700004         0.590424         1.736039
 H         0.293142         0.380110        -1.188036
 H        -1.752939         2.298005         2.640757
