19
Iteration:   170
 O        -3.426949         4.740344         1.932456
 C        -2.751534         3.964549         0.897725
 C        -3.190842         2.480407         1.113165
 C        -2.703063         1.701469        -0.085234
 C        -1.132850         2.068890         0.417703
 C        -0.233872         1.036482         1.136734
 C         0.535859         0.056161         0.228202
 O        -0.010037        -0.742282        -0.528722
 C        -1.771319         3.050209         1.487200
 H        -3.325215         5.661990         1.705612
 H        -2.522933         4.534090        -0.065171
 H        -4.071396         2.535134         1.749365
 H        -2.739307         0.601013        -0.198768
 H        -3.115719         2.215289        -0.888416
 H        -0.611203         2.690425        -0.351200
 H         0.519788         1.560744         1.810236
 H        -0.810257         0.380034         1.832642
 H         1.676642        -0.017383         0.365742
 H        -1.370890         3.135234         2.459361
