19
Iteration:  4800
 O        -3.234687         4.883112         1.837558
 C        -2.250717         4.046019         1.241129
 C        -2.826486         2.987715         0.433766
 C        -1.721417         2.208429        -0.359660
 C        -1.203551         1.743719         1.033426
 C        -1.186682         0.244592         1.174231
 C        -0.023782        -0.256652         0.320796
 O        -0.013693        -0.005471        -0.910145
 C        -2.276430         2.482484         1.864941
 H        -2.928993         5.260936         2.690169
 H        -1.305210         4.433289         1.017233
 H        -3.890337         2.970267         0.105879
 H        -2.047985         1.389931        -0.976056
 H        -1.098889         2.893859        -0.927115
 H        -0.212700         2.156460         1.306296
 H        -0.957228         0.004199         2.251365
 H        -2.109722        -0.260818         0.906366
 H         0.818066        -0.909866         0.733584
 H        -2.754235         2.143117         2.757983
