19
Iteration:  3914charge 0 multiplicity 1
 O        -2.991609         5.082733         1.542422
 C        -2.553783         3.861948         0.892182
 C        -3.284345         2.727978         1.463131
 C        -3.210219         1.373566         0.643892
 C        -1.587883         1.659779         0.629584
 C        -0.487057         0.677279         0.983064
 C        -0.029569        -0.111421        -0.212154
 O         1.039050         0.098772        -0.839747
 C        -1.811426         2.827360         1.655758
 H        -2.251738         5.646790         1.713093
 H        -2.431025         4.042959        -0.171623
 H        -3.919050         3.235533         2.179216
 H        -3.335458         0.602941         1.396231
 H        -3.726227         1.270043        -0.258387
 H        -1.388301         2.193048        -0.413139
 H         0.391339         1.241295         1.252057
 H        -0.847500         0.090236         1.839965
 H        -0.816617        -0.788246        -0.719034
 H        -1.152884         2.964323         2.481804
