19
Iteration:  3127charge 0 multiplicity 1
 O        -3.191566         4.613978         0.552208
 C        -3.051484         3.251857         0.846293
 C        -2.169865         2.971650         2.064274
 C        -2.195823         1.539543         2.511024
 C        -1.922904         1.123770         1.043579
 C        -0.737018         0.261269         0.817210
 C        -0.117978         0.417764        -0.563543
 O         0.371952         1.436796        -0.979002
 C        -1.741713         2.644979         0.697414
 H        -2.861585         4.630261        -0.379083
 H        -3.942109         2.714477         0.689778
 H        -2.023245         3.790627         2.834201
 H        -1.335125         1.263402         3.289988
 H        -3.110703         1.224474         2.994496
 H        -2.850767         0.725901         0.574765
 H         0.150760         0.267883         1.477885
 H        -0.994327        -0.835590         0.755579
 H        -0.088197        -0.487571        -1.260360
 H        -0.902828         3.007096         0.036060
