19
Iteration:  2280charge 0 multiplicity 1
 O        -3.691370         4.258584         0.365484
 C        -3.255453         3.041259         0.808827
 C        -2.451405         3.130359         2.198007
 C        -2.046315         1.633049         2.589661
 C        -1.418894         1.445847         1.160071
 C        -0.103597         0.596381         0.943818
 C         0.371609         0.870904        -0.448155
 O        -0.262778         0.572274        -1.475469
 C        -1.740656         2.908086         0.955526
 H        -3.402176         4.287708        -0.578911
 H        -3.911896         2.180702         0.629295
 H        -2.353599         3.841550         2.936640
 H        -1.202489         1.452407         3.431607
 H        -2.831322         0.931442         2.914914
 H        -2.209661         0.876215         0.532521
 H         0.636826         0.872367         1.653144
 H        -0.292998        -0.412674         1.143963
 H         1.389540         1.084731        -0.584450
 H        -1.167954         3.688826         0.347520
