19
Iteration:  3091
 O        -3.151358         4.664365         0.536036
 C        -3.232793         3.348155         0.964674
 C        -2.239589         2.952875         2.094550
 C        -2.228665         1.507991         2.545585
 C        -1.954873         1.099719         1.030496
 C        -0.550357         0.368591         0.790968
 C        -0.222187         0.433255        -0.665019
 O         0.637632         1.239349        -1.019120
 C        -1.861005         2.613378         0.737163
 H        -2.839912         4.771764        -0.413253
 H        -4.169522         2.783036         0.801798
 H        -1.954819         3.760345         2.772006
 H        -1.361353         1.272346         3.107609
 H        -3.194581         1.216142         2.981174
 H        -2.625433         0.506931         0.456293
 H         0.335053         0.871436         1.402289
 H        -0.723411        -0.813279         1.099683
 H        -0.888751        -0.237292        -1.307047
 H        -1.188240         3.155769         0.027174
