19
Iteration:  3246charge 0 multiplicity 1
 O        -3.122342         4.873924         0.868618
 C        -3.124590         3.438778         0.985304
 C        -2.389650         2.934016         2.139728
 C        -2.534996         1.391272         2.350013
 C        -1.855821         1.140370         0.883450
 C        -0.410074         0.521199         0.899897
 C         0.407203         0.525173        -0.352661
 O         0.056781         0.767015        -1.498551
 C        -1.805618         2.667448         0.651237
 H        -2.752274         5.093738         0.005393
 H        -4.150835         2.964058         0.788849
 H        -2.086184         3.686698         2.815300
 H        -2.013881         1.080655         3.174340
 H        -3.574354         1.014368         2.527498
 H        -2.459670         0.538453         0.210227
 H         0.287351         0.938365         1.721071
 H        -0.361103        -0.629243         1.195807
 H         1.405209         0.181724        -0.030862
 H        -1.008497         3.082706         0.153416
