19
Iteration:  2588
 O        -3.491217         4.316593         0.442741
 C        -3.289336         3.005576         0.827282
 C        -2.372034         3.071207         2.047653
 C        -2.006092         1.624706         2.653771
 C        -1.588167         1.162868         1.241500
 C        -0.068332         0.847494         1.058409
 C         0.293154         0.601488        -0.427773
 O        -0.279440         1.075634        -1.407708
 C        -1.895397         2.564632         0.592826
 H        -3.508735         4.399306        -0.553801
 H        -4.201295         2.238627         0.791276
 H        -2.002054         3.954279         2.423593
 H        -1.103146         1.898772         3.407064
 H        -2.789019         1.084505         3.104497
 H        -2.322879         0.248622         1.053461
 H         0.532716         1.763891         1.258405
 H         0.422595         0.078291         1.656506
 H         1.200033         0.000177        -0.572244
 H        -1.132265         3.138180         0.106632
