19
Iteration:  4886charge 0 multiplicity 1
 O        -3.619424         4.549632         1.897713
 C        -2.350568         4.096595         1.488171
 C        -2.635517         3.221936         0.266858
 C        -1.346357         2.543686        -0.390067
 C        -0.985939         1.954961         0.977122
 C        -0.706847         0.478949         1.284309
 C        -0.396103        -0.538941         0.257039
 O        -0.293898        -0.419431        -0.923841
 C        -2.227038         2.599545         1.735024
 H        -3.797923         4.726583         2.799168
 H        -1.522234         4.821305         1.576463
 H        -3.594139         3.304019        -0.321551
 H        -1.732463         1.871060        -1.157004
 H        -0.551148         3.005099        -1.028795
 H        -0.092126         2.389640         1.366019
 H         0.084427         0.377564         2.071579
 H        -1.579228         0.062525         1.756465
 H        -0.262141        -1.498017         0.761920
 H        -2.903223         2.156409         2.378475
