19
Iteration:  4685charge 0 multiplicity 1
 O        -2.900047         4.934609         2.195866
 C        -2.264691         4.009689         1.239816
 C        -3.187788         3.112996         0.500127
 C        -2.429481         2.303455        -0.518979
 C        -1.459995         1.848599         0.543475
 C        -1.090077         0.374874         1.058655
 C        -0.002738        -0.434083         0.405504
 O         0.796166        -0.251007        -0.562672
 C        -2.353206         2.485662         1.630637
 H        -2.316343         4.883774         2.986822
 H        -1.436302         4.532573         0.653256
 H        -4.278147         3.306027         0.347466
 H        -3.090443         1.403061        -0.826057
 H        -2.035326         2.848283        -1.445167
 H        -0.546993         2.342861         0.491152
 H        -0.882035         0.414846         2.116169
 H        -1.920419        -0.370142         0.962330
 H        -0.009052        -1.425563         0.857281
 H        -2.661285         2.307615         2.640769
