19
Iteration:  3636
 O        -3.343224         4.672334         2.033854
 C        -3.091655         3.671802         1.040205
 C        -2.750974         2.395088         1.688189
 C        -2.499441         1.360875         0.556685
 C        -1.333936         2.147081         0.045903
 C         0.009541         1.470187         0.435443
 C         0.192443         0.278902        -0.362716
 O        -0.215371        -0.793862         0.031464
 C        -1.607680         3.196239         1.061316
 H        -3.068520         5.563197         1.638214
 H        -3.723123         3.696595         0.173379
 H        -3.379661         2.274708         2.581370
 H        -2.235416         0.539715         1.167509
 H        -3.284834         1.079712        -0.157041
 H        -1.423919         2.442428        -0.917320
 H         0.814342         2.199300         0.303309
 H        -0.096926         1.307930         1.430212
 H         0.801053         0.451858        -1.220328
 H        -0.820253         3.708946         1.622902
