19
Iteration:  4565charge 0 multiplicity 1
 O        -2.992922         5.007875         2.119123
 C        -2.376258         4.032714         1.135113
 C        -3.177818         2.866517         0.631463
 C        -2.428317         2.124936        -0.426470
 C        -1.288391         1.843769         0.653377
 C        -1.111541         0.351450         0.962361
 C        -0.338209        -0.313690        -0.061225
 O         0.871440        -0.239786        -0.194242
 C        -2.064839         2.657320         1.703077
 H        -2.157910         5.286939         2.581501
 H        -1.620773         4.414874         0.496594
 H        -4.241735         2.859371         0.815146
 H        -2.754824         1.115461        -0.830939
 H        -2.169968         2.736850        -1.310821
 H        -0.286453         2.326475         0.573450
 H        -0.498540         0.251999         1.884746
 H        -2.134174        -0.051212         1.175582
 H        -0.922718        -0.812925        -0.844717
 H        -2.140894         2.420902         2.729937
