19
Iteration:   316charge 0 multiplicity 1
 O        -3.457111         4.769740         1.712659
 C        -2.694310         3.918545         0.843731
 C        -3.206149         2.481150         1.008393
 C        -2.353519         1.482317         0.228988
 C        -1.071537         2.156930         0.681801
 C         0.008237         1.112519         1.104416
 C         0.361959         0.094728         0.107393
 O        -0.306553        -0.565597        -0.667343
 C        -1.915613         2.908944         1.697469
 H        -3.507346         5.640822         1.239461
 H        -2.454572         4.322944        -0.180258
 H        -4.251822         2.408394         1.450159
 H        -2.496946         0.468466         0.599461
 H        -2.583330         1.475291        -0.884114
 H        -0.597703         2.869118        -0.068355
 H         1.057426         1.588279         1.350874
 H        -0.375115         0.746141         2.111348
 H         1.504101        -0.003356        -0.002874
 H        -1.968343         2.928671         2.812653
