19
Iteration:  2048
 O        -3.854157         4.697958         1.030602
 C        -3.344050         3.344730         1.088826
 C        -2.448862         3.086606         2.277846
 C        -2.187781         1.537150         2.340725
 C        -1.728579         1.533089         0.762444
 C        -0.387522         0.933368         0.470769
 C        -0.005753         0.361810        -0.870395
 O         1.099689        -0.168165        -0.964190
 C        -1.859672         3.106188         0.812948
 H        -3.944936         5.035676         0.093507
 H        -4.026554         2.455207         0.836371
 H        -2.462881         3.867877         3.004316
 H        -1.223993         1.242033         2.909409
 H        -2.987177         0.960832         2.604305
 H        -2.495361         0.985305         0.144850
 H         0.536110         1.675242         0.530872
 H        -0.141405         0.032473         1.126969
 H        -0.668904         0.369323        -1.864259
 H        -1.274048         3.656756         0.150481
