19
Iteration:  2914charge 0 multiplicity 1
 O        -3.784742         4.640501         1.145317
 C        -3.323459         3.352878         1.068315
 C        -2.345869         3.083159         2.169629
 C        -2.199778         1.525613         2.186348
 C        -1.712622         1.598568         0.679642
 C        -0.377817         0.917634         0.604630
 C         0.003705         0.412730        -0.720160
 O         1.039201        -0.150415        -0.985966
 C        -1.921468         3.061011         0.694892
 H        -4.292135         4.837887         0.296162
 H        -4.146143         2.729544         0.737313
 H        -1.878242         3.704756         3.078590
 H        -1.451943         1.114733         2.838269
 H        -3.206605         0.936101         2.439941
 H        -2.451100         0.970979         0.032331
 H         0.374455         1.639343         1.124435
 H        -0.549200         0.010271         1.200861
 H        -0.857713         0.464101        -1.466971
 H        -1.384026         3.923578         0.162264
