19
Iteration:   457charge 0 multiplicity 1
 O        -3.335850         4.761258         1.742488
 C        -2.840949         3.802870         0.851353
 C        -3.147010         2.492995         1.342195
 C        -2.689651         1.430506         0.311009
 C        -1.204208         1.957134         0.423200
 C        -0.221705         1.143409         1.175936
 C         0.169083        -0.095545         0.319906
 O         0.260993        -0.213771        -0.895018
 C        -1.669516         3.042461         1.429133
 H        -3.368932         5.631369         1.288210
 H        -2.842180         4.049081        -0.269787
 H        -4.002541         2.488523         2.011808
 H        -2.779285         0.440658         0.657841
 H        -3.198823         1.448453        -0.629441
 H        -0.794359         2.420352        -0.508783
 H         0.655633         1.695133         1.454873
 H        -0.724374         0.821020         2.072595
 H         0.421466        -0.956177         1.029506
 H        -1.239187         3.499952         2.310667
