19
Iteration:  4572
 O        -2.945040         4.999236         2.094829
 C        -2.421690         4.015958         1.188750
 C        -3.196268         2.797409         0.713433
 C        -2.372848         2.107594        -0.471929
 C        -1.229449         1.886097         0.631181
 C        -1.244891         0.407347         1.017061
 C        -0.343953        -0.348542        -0.082909
 O         0.879222        -0.199835        -0.196519
 C        -2.039877         2.631492         1.663869
 H        -2.142001         5.404727         2.542322
 H        -1.635933         4.530703         0.500799
 H        -4.266081         2.728940         0.755520
 H        -2.718985         1.078093        -0.821958
 H        -2.108988         2.728623        -1.369986
 H        -0.274474         2.327410         0.503349
 H        -0.736024         0.393701         1.960949
 H        -2.241886        -0.070206         1.106091
 H        -0.756717        -0.881906        -0.998842
 H        -2.172569         2.594072         2.778046
