19
Iteration:  3216
 O        -3.119049         4.748684         0.743557
 C        -3.144633         3.343421         0.944906
 C        -2.251781         2.970002         2.126195
 C        -2.401555         1.451377         2.431710
 C        -1.925075         1.154770         0.895026
 C        -0.576073         0.374756         0.853181
 C         0.280776         0.455010        -0.359796
 O         0.141545         1.075413        -1.400343
 C        -1.754708         2.669860         0.725298
 H        -2.845201         4.875049        -0.178836
 H        -4.073852         2.871931         0.853139
 H        -1.956907         3.820785         2.669944
 H        -1.771857         1.094852         3.286710
 H        -3.355875         1.131819         2.727892
 H        -2.602941         0.699182         0.170535
 H        -0.014573         0.742454         1.743260
 H        -0.807646        -0.670196         1.204750
 H         1.187345        -0.234905        -0.133198
 H        -1.161454         3.085249        -0.066540
