19
Iteration:  1547
 O        -3.496193         4.818033         1.061963
 C        -3.226792         3.417512         0.927448
 C        -2.732612         2.666337         2.136656
 C        -2.484706         1.249398         1.782368
 C        -1.440509         1.689678         0.663676
 C         0.167591         1.240130         0.780769
 C         0.503408         0.495827        -0.486125
 O        -0.244921        -0.346483        -0.940075
 C        -1.752128         3.143099         0.985330
 H        -3.060847         5.225716         0.266981
 H        -3.957005         3.087349         0.112074
 H        -2.893209         3.044166         3.186177
 H        -1.900812         0.835228         2.596625
 H        -3.273616         0.513548         1.379935
 H        -1.599133         1.413060        -0.487197
 H         0.986037         2.074124         0.915487
 H         0.302860         0.390171         1.464899
 H         1.510725         0.675111        -0.865579
 H        -1.016784         3.958209         1.195495
