19
Iteration:   700
 O        -3.181663         5.117109         1.568399
 C        -2.892999         3.800567         0.776891
 C        -3.321069         2.559814         1.561775
 C        -2.979050         1.256743         0.713150
 C        -1.506553         1.748015         0.569125
 C        -0.269769         0.925960         0.962199
 C         0.027751         0.161577        -0.195772
 O         1.043529        -0.244258        -0.693760
 C        -1.830685         2.960821         1.456129
 H        -2.414845         5.698210         1.304424
 H        -2.911202         3.983429        -0.357344
 H        -3.680171         2.767661         2.543691
 H        -2.998123         0.396010         1.447560
 H        -3.570185         0.952926        -0.109496
 H        -1.266013         2.002541        -0.403487
 H         0.521256         1.553983         1.525596
 H        -0.574331         0.065265         1.702522
 H        -0.915828        -0.139233        -0.697484
 H        -1.009115         3.386696         2.140282
