19
Iteration:   769
 O        -3.422554         5.148945         1.756594
 C        -2.954288         3.900417         1.026812
 C        -3.084004         2.590557         1.684261
 C        -3.088288         1.440782         0.671996
 C        -1.581700         1.873569         0.278009
 C        -0.373369         0.949760         0.694916
 C         0.157425        -0.143328        -0.220685
 O         1.285855        -0.539389        -0.482581
 C        -1.720018         3.032076         1.322232
 H        -3.443833         5.903248         1.127454
 H        -3.156780         4.034418        -0.116242
 H        -3.704017         2.521399         2.636240
 H        -3.085260         0.413132         1.080690
 H        -3.736632         1.472112        -0.213186
 H        -1.422183         2.275340        -0.676679
 H         0.429800         1.785326         0.688463
 H        -0.576548         0.644542         1.790111
 H        -0.648182        -0.536831        -0.858775
 H        -1.024528         3.589497         1.897867
