19
Iteration:  1468charge 0 multiplicity 1
 O        -3.769214         4.794054         1.381344
 C        -3.223466         3.541794         0.944045
 C        -2.681802         2.593803         2.015090
 C        -2.247575         1.231777         1.533895
 C        -1.331798         1.921793         0.406681
 C         0.164637         1.382584         0.528322
 C         0.396973         0.010818        -0.029327
 O        -0.174060        -0.481269        -0.975315
 C        -1.753940         3.352868         1.020074
 H        -3.419378         5.503066         0.780591
 H        -3.922188         3.139053         0.124469
 H        -2.696695         2.835909         3.035122
 H        -1.701653         0.713897         2.361470
 H        -3.099363         0.647747         1.125029
 H        -1.451977         2.182683        -0.701823
 H         0.721048         2.035357        -0.232873
 H         0.598390         1.379027         1.502144
 H         1.224006        -0.643905         0.461528
 H        -1.386097         4.353713         1.223892
