19
Iteration:  2470
 O        -3.910941         4.322904         0.651135
 C        -3.329678         3.089998         1.000421
 C        -2.258508         3.204278         2.029358
 C        -1.824672         1.851770         2.486954
 C        -1.626953         1.257611         1.005035
 C        -0.293393         0.509505         0.960344
 C         0.348541         0.286196        -0.381494
 O         0.305346         1.138304        -1.290688
 C        -2.020264         2.695400         0.457407
 H        -4.411898         4.194433        -0.177049
 H        -4.088077         2.263732         1.073198
 H        -1.944286         4.130648         2.499072
 H        -0.819111         1.811901         2.869391
 H        -2.462923         1.140905         3.216897
 H        -2.498220         0.596167         0.744058
 H         0.425522         1.100036         1.681908
 H        -0.482159        -0.371814         1.583051
 H         1.021440        -0.567802        -0.498571
 H        -1.326332         3.211423        -0.290821
