19
Iteration:  3252
 O        -3.105689         4.879184         0.883083
 C        -3.144250         3.426952         0.962586
 C        -2.388389         2.938091         2.118260
 C        -2.552788         1.361167         2.347763
 C        -1.803494         1.129796         0.812920
 C        -0.429996         0.561023         0.923268
 C         0.398485         0.530432        -0.351208
 O         0.040027         0.710606        -1.473162
 C        -1.805648         2.689594         0.742657
 H        -2.834892         5.177247         0.020643
 H        -4.107235         3.001589         0.733435
 H        -2.028979         3.657809         2.921295
 H        -1.865837         1.064563         3.270497
 H        -3.622892         1.023633         2.358441
 H        -2.502546         0.520082         0.155714
 H         0.241563         1.074521         1.566599
 H        -0.281303        -0.465615         1.079393
 H         1.520774         0.286058        -0.131624
 H        -1.081930         3.199540        -0.037382
