19
Iteration:  4584
 O        -2.895934         4.935283         2.053553
 C        -2.419627         3.999537         1.193413
 C        -3.248550         2.733733         0.726447
 C        -2.274987         2.157660        -0.423571
 C        -1.186738         1.911474         0.595140
 C        -1.296631         0.421689         1.020536
 C        -0.348764        -0.337095        -0.101855
 O         0.847589        -0.120653        -0.154355
 C        -2.024124         2.660080         1.671766
 H        -2.179497         5.459553         2.423578
 H        -1.965879         4.410660         0.186364
 H        -4.220923         2.475508         1.049993
 H        -2.880267         1.232355        -0.846361
 H        -2.103421         2.869604        -1.295355
 H        -0.227658         2.034454         0.285427
 H        -1.064315         0.127597         2.015730
 H        -2.394002         0.196448         0.850906
 H        -1.009614        -1.060112        -0.688881
 H        -1.875953         2.253855         2.693657
