19
Iteration:  4906charge 0 multiplicity 1
 O        -3.694359         4.441386         1.910836
 C        -2.386020         4.040110         1.480369
 C        -2.543439         3.234110         0.291282
 C        -1.376640         2.570701        -0.395966
 C        -0.799985         2.081987         0.992448
 C        -0.773184         0.569571         1.363650
 C        -0.508865        -0.560255         0.262952
 O        -0.333118        -0.450234        -0.920823
 C        -2.118661         2.600092         1.542014
 H        -3.579775         4.392803         2.892350
 H        -1.475852         4.698780         1.705786
 H        -3.580022         3.367759        -0.058103
 H        -1.616220         1.827931        -1.118054
 H        -0.637944         3.148125        -1.017559
 H         0.074789         2.716959         1.505405
 H         0.034917         0.360391         2.060411
 H        -1.751167         0.416336         1.932797
 H        -0.595791        -1.619228         0.836923
 H        -2.698100         1.973569         2.180195
