19
Iteration:  2802charge 0 multiplicity 1
 O        -3.787634         4.639923         1.007913
 C        -3.344149         3.275219         0.964634
 C        -2.435853         2.993438         2.135297
 C        -2.163321         1.475055         2.233931
 C        -1.609733         1.448104         0.795348
 C        -0.076088         1.092827         0.811583
 C         0.189636         0.804434        -0.655333
 O         0.448325        -0.297423        -1.100218
 C        -1.829641         2.919332         0.738144
 H        -4.097606         4.897394         0.133655
 H        -4.121143         2.543928         0.702147
 H        -2.261170         3.704342         2.842582
 H        -1.407051         1.251697         2.918555
 H        -3.168957         0.946728         2.309223
 H        -2.231439         0.788343         0.136478
 H         0.415712         2.156356         1.132895
 H         0.321697         0.337442         1.386125
 H         0.218860         1.693621        -1.331374
 H        -1.333334         3.677095         0.152378
