19
Iteration:   886
 O        -3.523533         4.817961         1.955884
 C        -3.199370         3.840286         0.990351
 C        -3.031156         2.511925         1.630428
 C        -2.698286         1.499734         0.532547
 C        -1.329391         2.231923         0.147785
 C        -0.033778         1.379164         0.278076
 C        -0.095512        -0.165217        -0.210134
 O         0.909951        -0.869175        -0.070040
 C        -1.730510         3.157098         1.317725
 H        -3.322386         5.673355         1.495302
 H        -3.562616         4.061137         0.006341
 H        -3.591874         2.323490         2.601269
 H        -2.397747         0.475783         1.005969
 H        -3.391818         1.331875        -0.320801
 H        -1.490616         2.887395        -0.761027
 H         0.852303         1.903557        -0.008442
 H         0.007457         1.077293         1.312348
 H        -1.091353        -0.625302        -0.308452
 H        -1.080487         3.817324         1.806118
