19
Iteration:  3212charge 0 multiplicity 1
 O        -3.122514         4.742504         0.723018
 C        -3.127705         3.330067         0.967199
 C        -2.237995         2.979131         2.118657
 C        -2.381581         1.459074         2.434348
 C        -1.931202         1.148108         0.907297
 C        -0.570666         0.360520         0.801208
 C         0.228414         0.463498        -0.330629
 O         0.149998         1.097142        -1.355921
 C        -1.735999         2.650806         0.720563
 H        -2.914612         4.800545        -0.248903
 H        -4.176366         2.847160         0.856095
 H        -2.060266         3.876727         2.763319
 H        -1.658651         1.091428         3.101582
 H        -3.429059         1.165153         2.730659
 H        -2.593045         0.821086         0.106002
 H        -0.004526         0.781547         1.687312
 H        -0.858425        -0.682832         1.174958
 H         1.140185        -0.267512        -0.242173
 H        -1.121800         3.069652        -0.055615
