19
Iteration:  4129charge 0 multiplicity 1
 O        -3.228007         4.801455         1.973544
 C        -2.663138         3.958423         1.016877
 C        -3.252362         2.606469         1.099967
 C        -2.658734         1.672926        -0.023684
 C        -1.204119         2.049561         0.467073
 C        -0.262997         0.939844         1.113175
 C         0.417934        -0.061163         0.202231
 O        -0.128229        -0.498814        -0.803765
 C        -1.791785         2.891065         1.548910
 H        -2.629749         5.476922         2.328760
 H        -2.324682         4.510295         0.077846
 H        -4.154719         2.598334         1.645423
 H        -2.881492         0.625400         0.042608
 H        -2.658264         2.051150        -1.019911
 H        -0.692862         2.706813        -0.376814
 H         0.493952         1.310484         1.796674
 H        -0.839499         0.341759         1.809678
 H         1.469454        -0.364164         0.475097
 H        -1.437506         2.792130         2.624292
