19
Iteration:  3573
 O        -3.466944         4.743725         1.867398
 C        -3.064859         3.679249         1.062786
 C        -2.855602         2.444966         1.838608
 C        -2.547501         1.302469         0.814941
 C        -1.327369         2.097493         0.163017
 C         0.189102         1.511560         0.374982
 C         0.489526         0.051754        -0.178152
 O        -0.399140        -0.681343        -0.401845
 C        -1.679961         3.270960         1.085208
 H        -2.947703         5.546704         1.653077
 H        -3.550709         3.635870         0.059796
 H        -3.109367         2.323857         2.885471
 H        -2.269317         0.387225         1.218469
 H        -3.434701         1.027978         0.139125
 H        -1.656152         2.360729        -0.926583
 H         0.979679         2.179973         0.014496
 H         0.370481         1.341700         1.492823
 H         1.586520        -0.338170        -0.407313
 H        -0.901632         3.806357         1.715155
