19
Iteration:  1957charge 0 multiplicity 1
 O        -3.572282         4.738490         0.895616
 C        -3.269171         3.330217         0.936652
 C        -2.426372         2.996256         2.203493
 C        -2.341021         1.508972         2.257445
 C        -1.786443         1.316472         0.903526
 C        -0.264233         0.908736         0.826624
 C         0.076554         0.121064        -0.401452
 O         0.700690         0.479624        -1.393593
 C        -1.852609         2.920271         0.733092
 H        -3.935646         4.730289         0.008655
 H        -4.073187         2.679531         0.607203
 H        -2.154042         3.750507         2.992516
 H        -1.545713         1.297142         3.021485
 H        -3.215378         1.078424         2.545050
 H        -2.245323         0.636959         0.136341
 H         0.385413         1.851930         0.759334
 H        -0.000957         0.335060         1.744078
 H        -0.292527        -0.887598        -0.420688
 H        -0.931420         3.426733         0.235347
