19
Iteration:  3861charge 0 multiplicity 1
 O        -3.007382         5.117428         1.717616
 C        -2.917448         3.878724         0.965406
 C        -3.225889         2.534735         1.610166
 C        -2.966527         1.486343         0.591479
 C        -1.454149         1.805876         0.424991
 C        -0.525859         0.696400         0.905785
 C        -0.108209        -0.048414        -0.320626
 O         1.044589        -0.180343        -0.571329
 C        -1.738695         3.021579         1.377844
 H        -2.359421         5.650965         1.279742
 H        -3.155091         4.064935        -0.154521
 H        -3.578709         2.448587         2.601059
 H        -2.962347         0.387934         1.075059
 H        -3.695340         1.673639        -0.244418
 H        -1.069973         2.228496        -0.533942
 H         0.361148         0.983073         1.395512
 H        -1.096253        -0.058446         1.436863
 H        -1.037460        -0.553197        -0.803033
 H        -1.049310         3.277754         2.169205
