19
Iteration:  2219charge 0 multiplicity 1
 O        -3.667894         4.460584         0.672603
 C        -3.226848         3.158953         0.884023
 C        -2.442574         2.965540         2.111643
 C        -2.150731         1.526034         2.516460
 C        -1.554563         1.364822         1.028973
 C        -0.083255         0.922556         0.972928
 C         0.282392         1.015841        -0.512931
 O        -0.037587         0.146225        -1.328267
 C        -1.721808         2.820854         0.654338
 H        -3.945845         4.607741        -0.241514
 H        -3.942583         2.408703         0.511974
 H        -2.512638         3.767768         2.862314
 H        -1.269735         1.489990         3.086432
 H        -2.997002         0.855774         2.862588
 H        -2.125050         0.643954         0.476166
 H         0.564022         1.696745         1.452525
 H         0.028761        -0.192214         1.329594
 H         0.912253         1.865528        -0.752918
 H        -0.994165         3.443561         0.208991
