19
Iteration:  2429charge 0 multiplicity 1
 O        -3.747125         4.337501         0.596096
 C        -3.347825         3.139803         1.056563
 C        -2.252208         3.183905         2.049243
 C        -1.967690         1.799587         2.609013
 C        -1.786627         1.209087         1.189815
 C        -0.242322         0.686743         0.966352
 C         0.402487         0.415407        -0.448757
 O         0.352831         1.073337        -1.475817
 C        -2.133121         2.495643         0.485410
 H        -3.885608         4.272486        -0.391841
 H        -4.244282         2.413978         1.307913
 H        -1.800944         4.080364         2.317695
 H        -1.134804         1.819449         3.197729
 H        -2.854122         1.524969         3.133069
 H        -2.296139         0.251256         0.843552
 H         0.500152         1.335677         1.269712
 H         0.006114        -0.240563         1.527358
 H         1.183490        -0.477515        -0.468183
 H        -1.572470         2.907042        -0.389637
