19
Iteration:  3273
 O        -3.053341         4.806532         0.924609
 C        -3.108290         3.396955         0.985837
 C        -2.428112         2.835247         2.176416
 C        -2.521550         1.302478         2.138889
 C        -1.827292         1.305762         0.792291
 C        -0.396763         0.716102         0.974609
 C         0.425979         0.585279        -0.346950
 O        -0.072919         0.511751        -1.442794
 C        -1.797172         2.819044         0.699984
 H        -3.243460         5.084157         0.011681
 H        -3.996976         2.952176         0.637622
 H        -2.164635         3.574353         2.994927
 H        -1.841228         0.817602         2.975257
 H        -3.554139         0.980688         2.218215
 H        -2.411873         0.737993         0.011613
 H         0.272874         1.319385         1.631109
 H        -0.362279        -0.309432         1.516627
 H         1.558314         0.542714        -0.101582
 H        -0.726441         3.290920         0.511039
