19
Iteration:  2832charge 0 multiplicity 1
 O        -3.619925         4.687476         1.001251
 C        -3.417548         3.267394         0.976457
 C        -2.571902         2.921442         2.230901
 C        -2.114260         1.412171         2.297591
 C        -1.670749         1.567856         0.827519
 C        -0.120664         1.155050         0.651330
 C         0.132837         0.735931        -0.801858
 O         0.648607        -0.351468        -1.008310
 C        -1.999652         2.970277         0.723540
 H        -3.712614         4.823942         0.028429
 H        -4.405218         2.713915         0.655884
 H        -2.354640         3.702926         2.902576
 H        -1.137659         1.347210         2.987804
 H        -2.930467         0.775361         2.538508
 H        -2.293821         0.884954         0.192156
 H         0.396089         1.985710         1.081833
 H         0.194907         0.289686         1.230310
 H         0.083193         1.493030        -1.634935
 H        -1.473345         3.824547         0.454542
