19
Iteration:  4446
 O        -3.237993         4.991203         2.078772
 C        -2.566764         4.025319         1.182934
 C        -3.248176         2.798551         0.686931
 C        -2.348206         2.319026        -0.420037
 C        -1.141762         2.017703         0.719251
 C        -0.823272         0.541894         0.965412
 C        -0.075691        -0.060342        -0.190810
 O         0.651551        -1.022678        -0.237767
 C        -2.012183         2.748341         1.767172
 H        -2.506519         5.337151         2.608947
 H        -1.954899         4.576142         0.421657
 H        -4.301938         2.736980         0.913622
 H        -2.726604         1.418134        -0.785671
 H        -2.360975         2.923827        -1.344696
 H        -0.213552         2.619858         0.449866
 H        -0.247845         0.381187         1.947110
 H        -1.793926         0.085329         1.232513
 H        -0.101372         0.633266        -1.045858
 H        -2.123934         2.668365         2.856000
