19
Iteration:  4172
 O        -3.459800         4.723903         1.986535
 C        -2.657930         4.018857         1.026158
 C        -3.199772         2.584174         1.014993
 C        -2.295915         1.756222        -0.066358
 C        -1.001996         2.183796         0.578006
 C        -0.142027         0.922646         1.113394
 C         0.302338        -0.014033        -0.009564
 O        -0.422486        -0.701491        -0.665453
 C        -1.746106         2.963775         1.618975
 H        -2.822186         5.322710         2.368484
 H        -2.662406         4.418777        -0.041118
 H        -4.107811         2.366800         1.527725
 H        -2.401303         0.675661         0.059271
 H        -2.512930         2.030763        -1.067098
 H        -0.271597         2.819241        -0.086766
 H         0.498978         1.337518         1.881835
 H        -0.944249         0.358618         1.591507
 H         1.377053        -0.021529        -0.188961
 H        -1.487707         2.919073         2.731905
