19
Iteration:  2159
 O        -3.651621         4.652836         0.874934
 C        -3.435367         3.302172         1.092280
 C        -2.289730         3.001318         2.163968
 C        -2.163648         1.466541         2.315631
 C        -1.721077         1.292850         0.824196
 C        -0.192632         1.164553         0.783543
 C         0.436839         0.896397        -0.606359
 O         0.388098        -0.189593        -1.148991
 C        -2.045265         2.756310         0.649740
 H        -3.818338         5.018847         0.021104
 H        -4.327822         2.605092         0.941975
 H        -1.988074         3.928898         2.766283
 H        -1.487753         0.955738         3.069696
 H        -3.055300         0.972327         2.527594
 H        -2.266091         0.443096         0.233386
 H         0.222831         2.140378         1.151819
 H         0.163348         0.473631         1.555221
 H         0.880796         1.715313        -1.222085
 H        -1.502127         3.355481        -0.153308
