19
Iteration:   194
 O        -3.582349         4.896481         1.932051
 C        -2.945482         3.986072         0.957847
 C        -3.121823         2.529736         1.127771
 C        -2.500503         1.753536        -0.004925
 C        -1.094213         2.050103         0.305937
 C        -0.325467         0.980744         1.091218
 C         0.509876        -0.039664         0.260086
 O         0.049093        -0.790909        -0.567646
 C        -1.689953         3.066573         1.454351
 H        -2.836724         5.293461         2.419080
 H        -2.909840         4.307240        -0.115064
 H        -3.779076         2.068559         1.805796
 H        -2.618764         0.711875         0.176060
 H        -2.805532         2.037594        -1.059996
 H        -0.696292         2.447542        -0.630258
 H         0.425965         1.446544         1.867953
 H        -1.051211         0.407779         1.754021
 H         1.656234        -0.056992         0.459503
 H        -1.181101         3.296620         2.404873
