19
Iteration:  3130
 O        -3.188867         4.620684         0.549652
 C        -3.068098         3.228901         0.840251
 C        -2.127472         2.981195         2.069946
 C        -2.227460         1.542930         2.533888
 C        -1.908144         1.131163         1.039183
 C        -0.707877         0.217877         0.791406
 C        -0.106965         0.412018        -0.547332
 O         0.349378         1.446718        -0.980570
 C        -1.727781         2.658502         0.693012
 H        -2.924235         4.729057        -0.349816
 H        -4.014562         2.692116         0.659706
 H        -2.062620         3.801209         2.706867
 H        -1.300070         1.248152         3.284120
 H        -3.181973         1.196652         3.019452
 H        -2.856492         0.732671         0.530227
 H         0.041970         0.294498         1.540442
 H        -1.117012        -0.731101         0.796839
 H        -0.026643        -0.444875        -1.268518
 H        -0.951580         2.974398         0.110576
