19
Iteration:  1783
 O        -3.232531         4.454729         0.388219
 C        -3.023100         3.136519         0.801108
 C        -2.231452         3.025826         2.067988
 C        -2.201257         1.529699         2.572626
 C        -1.853368         1.147985         1.126485
 C        -0.561260         0.376176         0.892906
 C         0.177344         0.666954        -0.278993
 O        -0.107717         1.300938        -1.271250
 C        -1.675725         2.594912         0.669507
 H        -2.867765         4.698302        -0.496740
 H        -3.876705         2.393697         0.780420
 H        -2.005886         3.789003         2.760381
 H        -1.513226         1.482211         3.520275
 H        -3.141507         1.330844         3.036647
 H        -2.747461         0.601355         0.710549
 H         0.102747         0.660652         1.660147
 H        -0.837946        -0.649299         1.053966
 H         1.325076         0.429970        -0.098015
 H        -0.899192         3.064135         0.139747
