19
Iteration:  4755charge 0 multiplicity 1
 O        -3.074715         4.869395         1.968811
 C        -2.208019         4.040461         1.281888
 C        -2.942836         3.017041         0.429660
 C        -2.093444         2.152457        -0.376525
 C        -1.358635         1.705027         0.874606
 C        -1.257099         0.227587         1.027126
 C         0.071172        -0.255672         0.379713
 O         0.325452        -0.038769        -0.754459
 C        -2.262872         2.600491         1.733042
 H        -2.636441         5.112391         2.803862
 H        -1.286316         4.431473         0.953771
 H        -3.933788         3.352885         0.178431
 H        -2.757257         1.379696        -0.655634
 H        -1.571269         2.562120        -1.266581
 H        -0.294683         2.130409         0.912672
 H        -1.149441         0.048161         2.141739
 H        -2.067148        -0.375331         0.679081
 H         0.752498        -0.607610         1.108021
 H        -2.761269         2.423009         2.734894
