19
Iteration:  3855charge 0 multiplicity 1
 O        -3.043954         5.096612         1.745755
 C        -2.900066         3.886326         0.990922
 C        -3.229682         2.530325         1.639300
 C        -2.933700         1.517796         0.568814
 C        -1.454776         1.849565         0.429540
 C        -0.550640         0.703533         0.856409
 C        -0.139479        -0.006925        -0.305333
 O         1.069201        -0.245581        -0.553203
 C        -1.728232         3.008890         1.306090
 H        -2.437860         5.725170         1.317708
 H        -3.102873         3.886049        -0.056262
 H        -3.573468         2.631756         2.698097
 H        -2.971086         0.516071         0.816341
 H        -3.710977         1.499354        -0.209197
 H        -1.070186         2.101475        -0.596004
 H         0.344079         1.155494         1.444048
 H        -1.004401        -0.123170         1.504789
 H        -0.967427        -0.620791        -0.690436
 H        -0.961136         3.336677         2.083860
