19
Iteration:  1376
 O        -3.599101         4.770487         1.719460
 C        -3.240787         3.492628         1.033751
 C        -2.634387         2.456333         1.887141
 C        -2.307803         1.240978         1.129010
 C        -1.397743         2.064654         0.130431
 C         0.108155         1.621550         0.310372
 C         0.216170         0.070443         0.250242
 O        -0.008153        -0.646766        -0.673134
 C        -1.781286         3.386943         0.894468
 H        -3.351948         5.308625         0.953337
 H        -4.008069         3.141099         0.373471
 H        -3.040249         2.388091         2.947483
 H        -1.646064         0.442052         1.589142
 H        -3.113349         0.771310         0.578121
 H        -1.762614         1.958330        -0.867005
 H         0.733384         1.951171        -0.452468
 H         0.518017         1.914623         1.282282
 H         0.442564        -0.377461         1.301240
 H        -0.941100         4.097684         1.144959
