19
Iteration:  2693
 O        -3.716902         4.462282         0.667623
 C        -3.309092         3.132477         0.905970
 C        -2.392402         3.107516         2.117410
 C        -2.144140         1.640046         2.577521
 C        -1.543781         1.334052         1.136010
 C        -0.143866         0.799002         0.970637
 C         0.462348         0.835677        -0.553050
 O         0.000656         0.248174        -1.509894
 C        -1.844172         2.808416         0.702368
 H        -3.722904         4.713623        -0.303786
 H        -3.995322         2.388805         0.688062
 H        -2.442751         4.056071         2.663763
 H        -1.357224         1.541243         3.250964
 H        -3.099366         1.229150         3.186941
 H        -2.214468         0.623474         0.734072
 H         0.689619         1.403155         1.540167
 H         0.043969        -0.275110         1.243487
 H         1.480848         1.285175        -0.625415
 H        -1.282418         3.375857        -0.020318
