19
Iteration:  3385charge 0 multiplicity 1
 O        -3.421020         4.946466         1.178359
 C        -3.071477         3.587211         0.912334
 C        -2.755698         2.779524         2.210612
 C        -2.465614         1.177033         1.830929
 C        -1.481982         1.702708         0.688136
 C        -0.161727         1.052297         0.693957
 C         0.433909         0.231911        -0.452495
 O        -0.098570        -0.227670        -1.401191
 C        -1.645441         3.124744         1.253603
 H        -3.167738         5.374432         0.382216
 H        -3.583057         2.937471         0.217975
 H        -3.181382         3.387523         2.967743
 H        -2.095101         0.645597         2.731759
 H        -3.397310         0.639746         1.559801
 H        -1.925208         1.391609        -0.364555
 H         0.670081         1.704363         1.008268
 H        -0.191731         0.231860         1.600814
 H         1.516412         0.070980        -0.344047
 H        -0.890997         3.846416         1.342469
