19
Iteration:  4843
 O        -3.353484         4.910414         1.891860
 C        -2.430400         3.947899         1.338546
 C        -2.755126         2.960159         0.328602
 C        -1.447228         2.424983        -0.307722
 C        -1.116087         1.907267         1.140303
 C        -0.842749         0.415180         1.285147
 C        -0.173801        -0.422913         0.222508
 O        -0.181331        -0.261744        -1.003106
 C        -2.407564         2.501420         1.715543
 H        -2.946236         4.949224         2.765119
 H        -1.553863         4.487388         1.141035
 H        -3.797979         3.063065        -0.051449
 H        -1.639389         1.577367        -0.975167
 H        -0.696989         3.126292        -0.729904
 H        -0.271452         2.400690         1.476231
 H        -0.363179         0.187042         2.276721
 H        -1.751906        -0.126389         1.320142
 H         0.290239        -1.417870         0.571203
 H        -2.976599         2.160115         2.515006
