19
Iteration:  1971
 O        -3.626343         4.731287         0.947698
 C        -3.268073         3.375081         0.948270
 C        -2.434137         3.020007         2.107907
 C        -2.381428         1.473526         2.419354
 C        -1.739172         1.383217         0.860218
 C        -0.194927         0.963362         0.794993
 C         0.052083         0.113113        -0.457625
 O         0.806551         0.356635        -1.406902
 C        -1.854522         2.894103         0.718335
 H        -3.971898         5.173034         0.149780
 H        -4.137995         2.687521         0.599292
 H        -2.436409         3.792258         2.852705
 H        -1.687320         0.969984         3.236129
 H        -3.364942         0.977453         2.478065
 H        -2.461433         0.896457         0.281162
 H         0.450805         1.945051         0.884073
 H         0.119928         0.243251         1.671240
 H        -0.606168        -0.768662        -0.496949
 H        -1.249390         3.614275         0.167779
