19
Iteration:  4158charge 0 multiplicity 1
 O        -3.387169         4.820662         2.040360
 C        -2.766462         4.025982         1.031050
 C        -3.105938         2.573090         0.971754
 C        -2.469365         1.685295        -0.085752
 C        -1.012806         2.104246         0.515154
 C        -0.185176         0.907800         1.188231
 C         0.347179        -0.038139         0.068438
 O        -0.329010        -0.656833        -0.745891
 C        -1.808017         2.976776         1.582167
 H        -2.781500         5.490709         2.465200
 H        -2.358633         4.677806         0.257216
 H        -3.982296         2.274619         1.531448
 H        -2.706727         0.540121         0.050385
 H        -2.539569         1.943603        -1.142494
 H        -0.445833         2.670613        -0.163944
 H         0.792705         1.156206         1.678584
 H        -0.726692         0.380251         2.031368
 H         1.474516         0.008383        -0.048807
 H        -1.608437         2.990050         2.594626
