19
Iteration:  1128
 O        -3.704051         4.624101         1.503301
 C        -3.013206         3.600406         0.877618
 C        -2.795745         2.377368         1.814385
 C        -2.359548         1.165939         1.078308
 C        -1.247857         2.031893         0.302134
 C         0.187427         1.608963         0.577077
 C         0.252592         0.380520        -0.398439
 O        -0.351503        -0.631773        -0.282033
 C        -1.598544         3.233755         1.226252
 H        -3.216886         5.435600         1.400009
 H        -3.354283         3.487457        -0.178342
 H        -3.043153         2.814023         2.720738
 H        -1.803041         0.282638         1.709943
 H        -3.107748         0.648323         0.363752
 H        -1.518333         2.308119        -0.817677
 H         0.932987         2.487494         0.392251
 H         0.326997         1.275195         1.619386
 H         1.096620         0.432187        -1.218107
 H        -0.881334         3.731837         1.965386
