19
Iteration:   763
 O        -3.372519         5.134927         1.744539
 C        -2.951975         3.879657         0.965354
 C        -3.104742         2.575276         1.675681
 C        -3.052965         1.396516         0.657976
 C        -1.641030         1.848575         0.323997
 C        -0.356989         0.978469         0.677853
 C         0.151724        -0.134222        -0.207631
 O         1.282252        -0.506152        -0.492271
 C        -1.724012         3.108217         1.383124
 H        -3.463575         5.856829         1.068522
 H        -2.950624         3.973465        -0.069137
 H        -3.748484         2.634225         2.547142
 H        -3.189749         0.412168         1.111741
 H        -3.898660         1.495405        -0.095252
 H        -1.652380         2.246842        -0.782293
 H         0.512517         1.585895         0.795256
 H        -0.582429         0.486212         1.605688
 H        -0.740663        -0.464208        -0.855486
 H        -0.965203         3.467153         2.150751
