19
Iteration:  2445
 O        -3.840651         4.443911         0.586056
 C        -3.463787         3.076006         1.076064
 C        -2.238629         3.198486         1.939334
 C        -1.886399         1.803924         2.556345
 C        -1.636412         1.154826         1.105791
 C        -0.254622         0.609971         0.873047
 C         0.419381         0.363079        -0.413750
 O         0.345281         1.085150        -1.377826
 C        -2.062704         2.562075         0.598389
 H        -4.091680         4.410345        -0.384198
 H        -4.243421         2.436040         1.303787
 H        -1.999328         4.242708         2.362244
 H        -0.856344         1.789798         3.219320
 H        -2.663997         1.243445         3.151052
 H        -2.413167         0.461286         0.953392
 H         0.442132         1.228949         1.650765
 H        -0.357273        -0.310668         1.486991
 H         1.013413        -0.602088        -0.415232
 H        -1.757040         3.038873        -0.322251
