19
Iteration:  3467charge 0 multiplicity 1
 O        -3.471624         4.817737         1.454243
 C        -3.105999         3.520872         0.942017
 C        -2.662011         2.604008         2.046957
 C        -2.315894         1.168709         1.408770
 C        -1.330842         1.879568         0.365618
 C         0.021895         1.300253         0.663423
 C         0.200889         0.065929        -0.031637
 O        -0.350693        -0.171015        -1.113210
 C        -1.659192         3.161019         1.049920
 H        -3.009853         5.552319         1.003694
 H        -3.764152         3.116478         0.122480
 H        -2.866647         2.738064         3.092505
 H        -1.849145         0.530063         2.185175
 H        -3.349450         0.800457         1.102120
 H        -1.453406         1.686711        -0.703603
 H         0.984630         1.827183         0.474821
 H         0.138136         1.108615         1.683331
 H         1.012488        -0.510127         0.438051
 H        -0.820937         3.988892         0.999468
