19
Iteration:  1474
 O        -3.744130         4.793165         1.361573
 C        -3.246674         3.528643         0.922791
 C        -2.686659         2.632574         2.016479
 C        -2.273425         1.229755         1.546244
 C        -1.321338         1.908540         0.450797
 C         0.170485         1.388853         0.528570
 C         0.420153         0.002858        -0.056723
 O        -0.185662        -0.460847        -0.985454
 C        -1.764202         3.322501         1.030435
 H        -3.449482         5.540400         0.801473
 H        -3.798553         3.111282         0.128589
 H        -2.839059         2.882373         3.104879
 H        -1.633046         0.680630         2.286221
 H        -3.174570         0.742131         1.200186
 H        -1.552517         1.846470        -0.605168
 H         0.646178         2.023203        -0.190318
 H         0.534845         1.532463         1.591240
 H         1.356004        -0.460924         0.285252
 H        -1.143529         4.197187         1.315899
