19
Iteration:  4699
 O        -2.815265         4.971384         2.167023
 C        -2.318458         3.987043         1.329143
 C        -3.275482         3.052521         0.458753
 C        -2.404550         2.279730        -0.625858
 C        -1.416470         1.793501         0.678641
 C        -1.108690         0.410323         1.043304
 C         0.096132        -0.468722         0.413024
 O         0.705807        -0.234103        -0.602143
 C        -2.427610         2.564800         1.600707
 H        -2.331278         4.954364         2.989682
 H        -1.390911         4.198133         0.925031
 H        -4.322047         3.322321         0.562045
 H        -2.877879         1.558110        -1.244667
 H        -1.836074         2.961824        -1.294248
 H        -0.508421         2.450111         0.607713
 H        -0.770279         0.419393         2.116202
 H        -2.003153        -0.171600         1.056929
 H         0.431705        -1.285385         1.158236
 H        -2.679291         1.961065         2.532941
