19
Iteration:  3161
 O        -3.217371         4.659871         0.570852
 C        -3.030466         3.322766         0.924388
 C        -2.130932         3.017120         2.103818
 C        -2.298736         1.597303         2.382533
 C        -1.864353         1.058166         1.041424
 C        -0.636841         0.115850         0.759376
 C         0.002956         0.340940        -0.516617
 O         0.168324         1.465346        -0.976653
 C        -1.648551         2.648797         0.675352
 H        -3.503164         4.697984        -0.402589
 H        -3.895712         2.743628         0.823012
 H        -1.966145         3.776781         2.817034
 H        -1.506288         1.455563         3.241855
 H        -3.280431         1.246147         2.635273
 H        -2.744658         0.566521         0.542815
 H         0.069033         0.198676         1.564572
 H        -1.156268        -0.788681         0.841888
 H         0.601885        -0.489264        -0.988776
 H        -0.865149         3.021412         0.152897
