19
Iteration:  1208
 O        -3.732762         4.636712         1.452609
 C        -3.010614         3.631305         0.865479
 C        -2.821440         2.455235         1.932356
 C        -2.401157         1.209245         1.164187
 C        -1.247094         2.102111         0.416742
 C         0.158452         1.564424         0.540062
 C         0.381122         0.305893        -0.418886
 O        -0.264517        -0.734767        -0.462600
 C        -1.628327         3.271756         1.269631
 H        -3.678218         5.501787         1.035083
 H        -3.381084         3.419262        -0.111864
 H        -3.306020         2.826205         2.896461
 H        -1.925938         0.457782         1.781876
 H        -3.222761         0.654623         0.536321
 H        -1.471049         2.191867        -0.684934
 H         0.939614         2.261981         0.490913
 H         0.177022         1.100001         1.591162
 H         1.114102         0.457528        -1.111464
 H        -0.808235         3.784867         1.722310
