19
Iteration:  2804
 O        -3.778153         4.649722         1.012904
 C        -3.343421         3.274660         0.957362
 C        -2.447608         2.976992         2.135099
 C        -2.150920         1.469097         2.234859
 C        -1.608245         1.442490         0.787795
 C        -0.086899         1.109535         0.773600
 C         0.189824         0.801333        -0.647664
 O         0.457475        -0.299372        -1.091429
 C        -1.830843         2.917860         0.747589
 H        -4.056386         4.810117         0.114336
 H        -4.131531         2.631012         0.709790
 H        -2.281028         3.693441         2.925928
 H        -1.431724         1.370705         2.942661
 H        -3.149005         0.937873         2.322174
 H        -2.207409         0.783212         0.164571
 H         0.356408         2.124265         1.138838
 H         0.289806         0.313519         1.484648
 H         0.140767         1.683541        -1.334562
 H        -1.383263         3.720580         0.112207
