19
Iteration:   882
 O        -3.485963         4.807835         1.953174
 C        -3.214237         3.836405         0.984976
 C        -3.050392         2.514470         1.597340
 C        -2.695582         1.498576         0.578713
 C        -1.344223         2.245449         0.128114
 C        -0.037127         1.369346         0.305325
 C        -0.085734        -0.163780        -0.194298
 O         0.906625        -0.857371        -0.088899
 C        -1.730300         3.129239         1.309468
 H        -3.296960         5.647827         1.529534
 H        -3.595997         3.964495        -0.038700
 H        -3.533500         2.220132         2.475707
 H        -2.526161         0.537021         0.993073
 H        -3.450795         1.397209        -0.279346
 H        -1.411888         2.832087        -0.785772
 H         0.840600         2.000743         0.060941
 H         0.057784         1.211418         1.410664
 H        -1.149338        -0.498125        -0.298740
 H        -1.074680         3.886838         1.831210
