19
Iteration:  4726charge 0 multiplicity 1
 O        -2.857073         4.994699         2.082678
 C        -2.347337         3.970342         1.272040
 C        -3.145507         3.035953         0.464857
 C        -2.241394         2.309029        -0.485953
 C        -1.411549         1.744688         0.784288
 C        -1.125525         0.344175         1.065487
 C         0.135913        -0.354990         0.470725
 O         0.491878        -0.148830        -0.703470
 C        -2.396964         2.448393         1.596404
 H        -2.443635         4.979092         2.936541
 H        -1.343930         4.229371         0.804152
 H        -4.166979         3.375041         0.247142
 H        -2.904805         1.520393        -0.944484
 H        -1.771709         2.846725        -1.298410
 H        -0.474414         2.355373         0.846183
 H        -1.087578         0.237909         2.164066
 H        -1.927475        -0.380358         0.701971
 H         0.736292        -1.101928         1.183336
 H        -2.690105         2.032117         2.497670
