19
Iteration:  3436
 O        -3.441334         4.831213         1.344787
 C        -3.115303         3.561263         0.899938
 C        -2.629286         2.658547         2.072736
 C        -2.504291         1.195863         1.603771
 C        -1.424578         1.745048         0.577749
 C         0.015503         1.193572         0.710167
 C         0.365466         0.089485        -0.217914
 O        -0.292634        -0.111569        -1.220756
 C        -1.647224         3.177148         1.073896
 H        -3.217658         5.474301         0.633288
 H        -3.615066         3.047631         0.102423
 H        -2.670908         2.886727         3.111492
 H        -2.208766         0.464857         2.437803
 H        -3.489433         0.888438         1.283490
 H        -1.625976         1.590352        -0.429565
 H         0.839781         1.910290         0.477539
 H         0.292287         0.810350         1.629859
 H         1.248432        -0.485643         0.067028
 H        -0.878157         4.040380         1.249027
