19
Iteration:  3997charge 0 multiplicity 1
 O        -3.007181         5.058633         1.476136
 C        -2.617248         3.878980         0.871190
 C        -3.161580         2.544081         1.515693
 C        -2.950591         1.468074         0.428363
 C        -1.397419         1.725313         0.642531
 C        -0.542868         0.558635         1.180460
 C        -0.111752        -0.215152        -0.122627
 O         0.657915         0.346627        -0.835470
 C        -1.742643         2.848664         1.647547
 H        -2.277468         5.719028         1.553536
 H        -2.504513         3.981391        -0.244737
 H        -4.004175         2.659167         2.277670
 H        -3.201841         0.408898         0.728345
 H        -3.539014         1.559579        -0.561016
 H        -0.831705         2.058901        -0.241489
 H         0.462305         1.047278         1.367416
 H        -0.919044         0.118081         2.110130
 H        -0.497850        -1.201195        -0.430342
 H        -1.112329         3.073326         2.441583
