19
Iteration:  2749
 O        -3.836713         4.514005         0.793828
 C        -3.312303         3.235736         1.048253
 C        -2.371743         3.072778         2.160732
 C        -2.071264         1.534572         2.369661
 C        -1.620498         1.478148         0.821891
 C        -0.173816         0.923933         0.819353
 C         0.474775         0.772514        -0.492962
 O         0.216279        -0.103924        -1.318792
 C        -1.899491         2.984631         0.744923
 H        -4.001319         4.597704        -0.139515
 H        -3.992348         2.469597         0.892210
 H        -2.299902         3.872112         2.769941
 H        -1.201840         1.454556         2.960989
 H        -2.892997         0.848326         2.869959
 H        -2.285769         0.840447         0.286344
 H         0.487602         1.576265         1.467809
 H        -0.322563        -0.145190         1.169052
 H         1.029308         1.714964        -0.821368
 H        -1.235179         3.768077         0.453659
