19
Iteration:   829charge 0 multiplicity 1
 O        -3.356335         4.830411         1.866549
 C        -3.062719         3.804141         0.984649
 C        -3.025295         2.471420         1.610494
 C        -2.815135         1.403526         0.620947
 C        -1.484905         2.039579         0.081847
 C        -0.262232         1.228476         0.698242
 C        -0.087468         0.026266        -0.137095
 O         0.965249        -0.589036        -0.242483
 C        -1.711441         3.188208         1.072736
 H        -2.525930         5.308534         1.858197
 H        -3.435555         3.963421         0.015919
 H        -3.285752         2.430448         2.613369
 H        -2.480498         0.466182         1.140194
 H        -3.530213         1.045002        -0.217234
 H        -1.416168         2.367762        -1.038398
 H         0.629224         1.780028         0.864073
 H        -0.572317         1.021057         1.696593
 H        -0.993944        -0.138572        -0.774225
 H        -1.043213         3.532633         1.905464
