19
Iteration:  4905charge 0 multiplicity 1
 O        -3.697027         4.446932         1.908770
 C        -2.386268         4.038682         1.482642
 C        -2.534503         3.239562         0.292530
 C        -1.390362         2.562444        -0.391302
 C        -0.810304         2.070328         0.990722
 C        -0.769786         0.566025         1.360866
 C        -0.501466        -0.555728         0.265484
 O        -0.331082        -0.450607        -0.924958
 C        -2.120200         2.605678         1.538092
 H        -3.550008         4.396050         2.858521
 H        -1.464641         4.702840         1.707050
 H        -3.559187         3.369330        -0.030288
 H        -1.592272         1.826685        -1.122093
 H        -0.636149         3.176142        -0.981014
 H         0.087685         2.730001         1.498891
 H         0.037287         0.367384         2.052519
 H        -1.766538         0.395016         1.942123
 H        -0.596212        -1.606305         0.848436
 H        -2.702463         1.955277         2.217184
