19
Iteration:    28
 O        -3.464352         4.924035         1.687388
 C        -2.756301         3.940765         0.980823
 C        -3.163592         2.460699         1.053610
 C        -2.254884         1.856914        -0.064703
 C        -0.984144         2.157933         0.818676
 C        -0.220373         0.858822         1.248136
 C         0.216826         0.161814        -0.118070
 O        -0.029072        -0.919541        -0.608686
 C        -1.954138         2.965240         1.762631
 H        -4.394802         4.727426         1.561359
 H        -2.379323         4.277200        -0.022624
 H        -4.255349         2.181381         1.182692
 H        -2.392747         0.736500        -0.211432
 H        -2.354765         2.607507        -0.931868
 H        -0.253305         2.793882         0.314941
 H         0.661751         1.043484         1.979461
 H        -0.908734         0.219490         1.882174
 H         0.937965         0.852851        -0.768696
 H        -1.696504         3.230209         2.806197
