19
Iteration:    26charge 0 multiplicity 1
 O        -3.450418         4.907628         1.690694
 C        -2.754884         3.934229         0.971558
 C        -3.182983         2.471113         1.035429
 C        -2.255088         1.881430        -0.070442
 C        -0.997382         2.153855         0.817066
 C        -0.239483         0.869637         1.239663
 C         0.220106         0.148665        -0.111197
 O        -0.020681        -0.916938        -0.600820
 C        -1.937848         2.975381         1.767693
 H        -4.396555         4.667981         1.664268
 H        -2.398027         4.302007        -0.037564
 H        -4.209693         2.130816         1.260138
 H        -2.435564         0.736030        -0.239909
 H        -2.367436         2.580468        -0.961516
 H        -0.278489         2.772413         0.316899
 H         0.704597         1.075993         1.893269
 H        -0.863396         0.230253         1.934533
 H         0.947280         0.822247        -0.708346
 H        -1.724052         3.188067         2.866462
