19
Iteration:  1526charge 0 multiplicity 1
 O        -3.526029         4.796773         1.127860
 C        -3.102771         3.446006         0.894964
 C        -2.718005         2.679216         2.077330
 C        -2.356740         1.172714         1.720051
 C        -1.495455         1.678724         0.601295
 C         0.054456         1.350656         0.723956
 C         0.477188         0.433836        -0.376484
 O        -0.266005        -0.369305        -0.928832
 C        -1.688455         3.113877         1.056630
 H        -3.429685         5.331184         0.328243
 H        -3.691853         2.973285         0.066753
 H        -2.956619         3.115805         3.091325
 H        -1.935188         0.645087         2.521273
 H        -3.171522         0.555533         1.228275
 H        -1.859802         1.661356        -0.499777
 H         0.510375         2.400151         0.716938
 H         0.192895         1.036521         1.791085
 H         1.567081         0.582860        -0.638631
 H        -0.939376         3.935786         1.035758
