19
Iteration:   102
 O        -3.377147         4.935817         1.662109
 C        -2.672666         3.887152         0.900137
 C        -3.259494         2.537661         0.912428
 C        -2.438990         1.600419        -0.001771
 C        -1.125247         1.992319         0.768497
 C        -0.112130         0.929868         1.223414
 C         0.354756         0.309715        -0.054560
 O        -0.175139        -0.639138        -0.516561
 C        -1.901205         2.854082         1.725440
 H        -3.445323         4.689529         2.633873
 H        -2.249661         4.411977        -0.002750
 H        -4.315072         2.342482         1.298604
 H        -2.719887         0.521222         0.253356
 H        -2.389634         1.883078        -1.015440
 H        -0.491853         2.606464         0.094421
 H         0.769998         1.489925         1.596480
 H        -0.296611         0.120463         1.957122
 H         1.417118         0.557954        -0.454929
 H        -1.923310         2.876097         2.843202
