19
Iteration:  1033
 O        -3.607314         4.745657         1.853844
 C        -3.092493         3.729867         0.981525
 C        -2.730092         2.498324         1.748337
 C        -2.677340         1.249717         0.751848
 C        -1.488079         2.066814         0.112015
 C        -0.068273         1.496026         0.460379
 C         0.519061         0.255553        -0.320542
 O         0.121289        -0.854034        -0.081482
 C        -1.596725         3.234434         1.099032
 H        -3.379482         5.584819         1.400380
 H        -3.771869         3.437770         0.172251
 H        -3.164754         2.509239         2.750351
 H        -2.323464         0.339653         1.156640
 H        -3.635797         1.137541         0.273918
 H        -1.506695         2.182546        -1.016383
 H         0.638995         2.276427         0.423021
 H        -0.192736         1.187684         1.539888
 H         1.117446         0.472250        -1.276441
 H        -0.728357         3.801874         1.468775
