19
Iteration:    14
 O        -3.408642         4.846996         1.740048
 C        -2.775471         3.909058         0.962903
 C        -3.212989         2.555930         0.923989
 C        -2.320984         1.921677        -0.100723
 C        -1.052835         2.171206         0.768191
 C        -0.308637         0.879917         1.167868
 C         0.253237         0.168321        -0.020255
 O        -0.005878        -0.939227        -0.538356
 C        -1.851575         2.960868         1.761936
 H        -4.213780         4.436629         2.169037
 H        -2.373777         4.353718         0.015335
 H        -3.928373         2.093967         1.538650
 H        -2.511290         0.793013        -0.329001
 H        -2.236074         2.373106        -1.116470
 H        -0.308853         2.789197         0.300989
 H         0.682492         1.347575         1.500144
 H        -0.755249         0.220523         1.943484
 H         1.082234         0.832799        -0.483366
 H        -1.906654         3.001111         2.889241
