19
Iteration:  3375
 O        -3.401960         4.895199         1.143524
 C        -3.029524         3.548410         0.955025
 C        -2.815417         2.803679         2.214949
 C        -2.435344         1.277425         1.842922
 C        -1.576087         1.638495         0.683063
 C        -0.175862         1.033448         0.776639
 C         0.467440         0.299398        -0.457427
 O        -0.109618        -0.231373        -1.430691
 C        -1.620051         3.114403         1.211607
 H        -3.011150         5.477584         0.487214
 H        -3.635189         3.172189         0.082381
 H        -3.187966         3.091952         3.190381
 H        -1.733162         0.854777         2.571478
 H        -3.312449         0.537180         1.590525
 H        -2.104975         1.669939        -0.362496
 H         0.582959         1.694359         1.226932
 H        -0.247574         0.056147         1.404992
 H         1.522747         0.097950        -0.315703
 H        -0.807742         3.737542         1.179047
