19
Iteration:  1289charge 0 multiplicity 1
 O        -3.406991         4.794499         1.682799
 C        -3.209347         3.574800         0.999057
 C        -2.786713         2.448000         1.917753
 C        -2.583976         1.217922         1.076289
 C        -1.492619         1.929292         0.182022
 C        -0.012208         1.566831         0.498426
 C         0.568817         0.321384        -0.154540
 O        -0.007262        -0.739412        -0.491828
 C        -1.790042         3.270940         0.985383
 H        -3.465759         5.489844         0.971094
 H        -3.888814         3.407435         0.101816
 H        -2.791030         2.587215         2.997258
 H        -2.218043         0.295430         1.647423
 H        -3.416329         0.921752         0.502130
 H        -1.596170         1.797599        -0.900728
 H         0.736879         2.419969         0.447388
 H        -0.072190         1.299935         1.544156
 H         1.754067         0.349903        -0.245355
 H        -1.077256         4.167864         1.050678
