19
Iteration:  2551charge 0 multiplicity 1
 O        -3.673999         4.228283         0.371766
 C        -3.285097         3.076019         0.946735
 C        -2.374385         3.130821         2.142052
 C        -1.895104         1.731404         2.621375
 C        -1.610233         1.281146         1.209194
 C        -0.147247         0.644442         0.957514
 C         0.259818         0.419117        -0.462260
 O        -0.019054         1.161341        -1.389293
 C        -1.905010         2.698282         0.651378
 H        -3.734847         4.126533        -0.625822
 H        -4.130109         2.252034         1.103682
 H        -2.023336         4.155182         2.593092
 H        -0.993576         1.715543         3.323485
 H        -2.702205         1.091213         3.117797
 H        -2.355999         0.425553         0.827924
 H         0.546334         1.308940         1.484710
 H        -0.071943        -0.309754         1.566355
 H         0.959027        -0.419965        -0.703948
 H        -1.259193         3.270211        -0.039377
