19
Iteration:  3572
 O        -3.468724         4.741563         1.862353
 C        -3.068750         3.683762         1.061093
 C        -2.843064         2.452968         1.834537
 C        -2.545909         1.297444         0.823097
 C        -1.333745         2.101379         0.169154
 C         0.184643         1.511502         0.370937
 C         0.489185         0.047843        -0.170973
 O        -0.399125        -0.684866        -0.412400
 C        -1.679988         3.276162         1.091670
 H        -2.973662         5.527158         1.643425
 H        -3.554796         3.638657         0.073519
 H        -3.131669         2.332964         2.903100
 H        -2.245005         0.366286         1.210462
 H        -3.414952         1.039990         0.138185
 H        -1.616647         2.367112        -0.894682
 H         0.980016         2.178292         0.038678
 H         0.364308         1.339174         1.429021
 H         1.607568        -0.340683        -0.390588
 H        -0.908564         3.763272         1.725048
