19
Iteration:  4876
 O        -3.584828         4.650414         1.890685
 C        -2.390582         4.063039         1.432593
 C        -2.644159         3.168337         0.323489
 C        -1.387413         2.558505        -0.384929
 C        -0.988948         1.976480         1.056713
 C        -0.758243         0.431120         1.299653
 C        -0.298951        -0.633541         0.246327
 O        -0.268095        -0.372156        -0.973885
 C        -2.284109         2.609953         1.686402
 H        -3.386725         4.787334         2.813140
 H        -1.487691         4.606764         1.422054
 H        -3.641670         3.383185        -0.148624
 H        -1.842852         1.679046        -0.914953
 H        -0.569879         3.041132        -0.948101
 H        -0.285029         2.530246         1.505542
 H         0.070122         0.326704         2.064683
 H        -1.613070         0.090609         1.806701
 H         0.000474        -1.563189         0.638600
 H        -2.912897         2.162934         2.371608
