19
Iteration:   930
 O        -3.691953         4.739278         1.882056
 C        -2.994319         3.855271         1.014522
 C        -2.941454         2.518572         1.711115
 C        -2.748853         1.453026         0.537369
 C        -1.384835         2.174255         0.151165
 C        -0.033162         1.368732         0.215509
 C        -0.058085         0.005481        -0.258229
 O         0.750983        -0.871224         0.048517
 C        -1.587244         3.160404         1.284343
 H        -3.240451         5.625273         1.912238
 H        -3.257811         3.747563        -0.010908
 H        -3.453261         2.487758         2.743387
 H        -2.515228         0.346658         0.933435
 H        -3.555454         1.374717        -0.261196
 H        -1.359527         2.719426        -0.863356
 H         0.703406         2.074380        -0.169440
 H         0.174557         1.359875         1.267835
 H        -0.935555        -0.071207        -0.974845
 H        -0.842641         3.579810         1.910672
