19
Iteration:  2353
 O        -3.587196         4.358491         0.521978
 C        -3.280110         3.004575         0.886803
 C        -2.294103         3.115301         2.023819
 C        -2.083300         1.637643         2.463864
 C        -1.507565         1.203579         1.121315
 C        -0.003556         0.900023         1.061856
 C         0.338130         0.506771        -0.341539
 O        -0.251308         1.067441        -1.261352
 C        -1.968837         2.520291         0.544122
 H        -3.858471         4.390734        -0.381406
 H        -4.190116         2.347727         0.899359
 H        -1.837291         4.082772         2.331844
 H        -1.309453         1.463299         3.222473
 H        -2.917673         0.988875         2.691051
 H        -1.898458         0.214115         0.760649
 H         0.638372         1.761318         1.518858
 H         0.440220        -0.008692         1.643548
 H         1.051633        -0.240108        -0.522930
 H        -1.457558         3.147884        -0.287431
