19
Iteration:  2554
 O        -3.641746         4.237939         0.358831
 C        -3.293121         3.050076         0.955716
 C        -2.382972         3.155358         2.153657
 C        -1.900556         1.696743         2.609608
 C        -1.631670         1.286087         1.203570
 C        -0.126251         0.669867         0.947738
 C         0.269830         0.437551        -0.454305
 O        -0.043191         1.154714        -1.385724
 C        -1.903279         2.682197         0.650350
 H        -3.734246         4.199995        -0.604851
 H        -4.117286         2.195096         1.043540
 H        -2.057215         4.097355         2.633797
 H        -0.992475         1.793018         3.406227
 H        -2.579999         1.098706         3.137354
 H        -2.316165         0.394851         0.930814
 H         0.487769         1.363163         1.467513
 H        -0.110785        -0.298694         1.479500
 H         0.902274        -0.442433        -0.614646
 H        -1.248292         3.206300        -0.086771
