19
Iteration:   944charge 0 multiplicity 1
 O        -3.540324         4.701373         1.857196
 C        -2.986319         3.768450         1.012387
 C        -2.979368         2.415383         1.630095
 C        -2.721606         1.398370         0.636246
 C        -1.399163         2.186562         0.130248
 C        -0.014791         1.528240         0.301358
 C        -0.032707         0.057746        -0.359280
 O         0.652018        -0.873332         0.083087
 C        -1.679457         3.266320         1.286539
 H        -3.144008         5.568218         1.716746
 H        -3.387879         3.998146        -0.031784
 H        -3.370642         2.256272         2.602076
 H        -2.660024         0.341332         0.939143
 H        -3.482637         1.458431        -0.108911
 H        -1.620757         2.589203        -0.903815
 H         0.932666         2.010676        -0.003755
 H         0.176641         1.178617         1.342522
 H        -0.846391        -0.322618        -0.964299
 H        -0.934861         3.784330         1.962651
