19
Iteration:  1661charge 0 multiplicity 1
 O        -3.512154         4.804999         0.915620
 C        -3.309940         3.420982         1.030570
 C        -2.518109         2.966281         2.137026
 C        -2.374877         1.430159         2.108824
 C        -1.565046         1.319177         0.783829
 C        -0.121557         0.926276         0.889138
 C         0.498901         0.261382        -0.280760
 O         0.008579         0.238127        -1.372067
 C        -1.775147         2.966619         0.729557
 H        -3.193812         5.020173        -0.004753
 H        -4.177221         2.775622         0.741535
 H        -2.385247         3.596178         3.052818
 H        -1.794389         0.940860         2.988302
 H        -3.222716         0.783420         1.969973
 H        -2.131189         0.900521        -0.150620
 H         0.419962         1.767674         1.352126
 H        -0.147025         0.012092         1.585420
 H         1.504480        -0.151562        -0.008518
 H        -1.161626         3.780841         0.173050
