19
Iteration:  3069
 O        -3.187927         4.683158         0.661167
 C        -3.144230         3.311892         0.969607
 C        -2.262558         3.046793         2.125008
 C        -2.364013         1.499030         2.508668
 C        -1.903103         1.136538         1.051522
 C        -0.544583         0.453442         0.888560
 C        -0.187341         0.512873        -0.649803
 O         0.780478         1.054555        -1.167314
 C        -1.966231         2.563453         0.600268
 H        -3.245889         4.697514        -0.299177
 H        -4.118013         2.816960         1.102200
 H        -1.866030         3.843891         2.690384
 H        -1.697043         1.267556         3.305894
 H        -3.386045         1.115831         2.718643
 H        -2.579330         0.490738         0.476253
 H         0.384060         0.913043         1.453735
 H        -0.514824        -0.748443         1.088011
 H        -1.116409         0.138447        -1.209828
 H        -1.174268         3.002788         0.022372
