19
Iteration:   159charge 0 multiplicity 1
 O        -3.321131         4.726750         1.924993
 C        -2.701166         3.914082         0.912322
 C        -3.223884         2.523640         1.064040
 C        -2.582018         1.662176        -0.038421
 C        -1.259438         2.110102         0.435596
 C        -0.257441         1.091970         1.108544
 C         0.501089         0.091725         0.209178
 O        -0.035940        -0.709090        -0.519134
 C        -1.811337         2.982166         1.581411
 H        -3.608463         5.525914         1.460792
 H        -2.444982         4.290538        -0.129990
 H        -4.205389         2.244740         1.446042
 H        -2.842643         0.571446        -0.101966
 H        -2.654946         2.002152        -1.052672
 H        -0.694892         2.430012        -0.452202
 H         0.473946         1.733245         1.704655
 H        -0.891242         0.498174         1.814792
 H         1.663859         0.165914         0.282771
 H        -1.402626         3.312522         2.493831
