19
Iteration:  4407
 O        -3.476968         4.665502         2.128242
 C        -2.486154         4.131584         1.154465
 C        -3.072962         2.894209         0.815123
 C        -2.377802         2.283528        -0.394036
 C        -1.027482         2.163582         0.570682
 C        -0.857319         0.629608         0.810029
 C        -0.002746        -0.035547        -0.198916
 O         0.403281        -1.158196        -0.071762
 C        -1.793178         2.919274         1.706288
 H        -3.062219         5.375585         2.659575
 H        -2.116659         4.875021         0.433547
 H        -4.103211         2.636528         1.086269
 H        -2.690605         1.231034        -0.606743
 H        -2.232640         2.979849        -1.222337
 H        -0.029786         2.539823         0.269479
 H        -0.364340         0.410604         1.744850
 H        -1.823206         0.111154         0.667132
 H         0.421749         0.622066        -1.010828
 H        -1.727150         2.820720         2.758083
