19
Iteration:   292
 O        -3.329855         4.761368         1.865147
 C        -2.706115         3.876426         0.861231
 C        -3.293739         2.472829         0.949427
 C        -2.431887         1.451734         0.069136
 C        -1.144091         2.121393         0.581707
 C        -0.053647         1.155901         1.169888
 C         0.409096         0.135767         0.143957
 O        -0.291097        -0.541999        -0.562666
 C        -1.811556         2.967121         1.577295
 H        -4.090574         5.104989         1.384974
 H        -2.428477         4.258292        -0.199928
 H        -4.184011         2.209407         1.543296
 H        -2.500701         0.453696         0.358518
 H        -2.625727         1.502365        -0.983838
 H        -0.584004         2.783448        -0.189181
 H         0.751630         1.681547         1.744603
 H        -0.510746         0.460442         1.905702
 H         1.533699        -0.065569         0.101197
 H        -1.381530         3.504162         2.488753
