19
Iteration:  3603
 O        -3.322736         4.745925         1.954576
 C        -3.123873         3.709613         1.022235
 C        -2.736060         2.355569         1.701208
 C        -2.495821         1.172163         0.638474
 C        -1.349894         2.062090         0.161636
 C         0.093274         1.581109         0.462335
 C         0.356677         0.289903        -0.235085
 O        -0.408407        -0.717246        -0.171642
 C        -1.684747         3.216290         1.038383
 H        -2.718250         5.490924         1.688496
 H        -3.679745         3.729794         0.099854
 H        -3.068155         2.259460         2.790477
 H        -2.325294         0.191585         1.088580
 H        -3.306139         1.075551        -0.090691
 H        -1.566085         2.263026        -0.808538
 H         0.815911         2.309195         0.079483
 H         0.225440         1.388958         1.461971
 H         1.230953         0.178612        -0.826864
 H        -0.970206         3.583029         1.759067
