19
Iteration:     6charge 0 multiplicity 1
 O        -3.417696         4.842964         1.826118
 C        -2.758615         3.950971         1.028129
 C        -3.176490         2.594575         0.866835
 C        -2.381144         1.850640        -0.173927
 C        -1.066563         2.181771         0.655740
 C        -0.306081         0.892265         1.103143
 C         0.289713         0.168013         0.014519
 O        -0.000300        -0.916357        -0.429900
 C        -1.871676         2.907793         1.677350
 H        -3.909062         4.317230         2.506084
 H        -2.293717         4.403926         0.125253
 H        -4.065758         2.224763         1.405429
 H        -2.479064         0.737015        -0.132310
 H        -2.257584         2.436660        -1.131847
 H        -0.298554         2.824013         0.173422
 H         0.443285         1.354083         1.796828
 H        -0.903759         0.230928         1.782616
 H         1.170214         0.735581        -0.487730
 H        -1.801066         2.928031         2.783432
