19
Iteration:   778charge 0 multiplicity 1
 O        -3.449568         5.095495         1.768226
 C        -3.003796         3.975498         1.046504
 C        -3.149441         2.594582         1.720844
 C        -3.064826         1.498813         0.645699
 C        -1.500992         1.902970         0.242072
 C        -0.365778         0.982948         0.721380
 C         0.122358        -0.171342        -0.286257
 O         1.277265        -0.557051        -0.431167
 C        -1.695762         3.000262         1.255386
 H        -3.272083         5.835208         1.139757
 H        -3.585114         3.966423         0.055015
 H        -3.399450         2.440665         2.758455
 H        -3.019521         0.477551         1.123885
 H        -3.730208         1.512576        -0.167604
 H        -1.233121         2.192977        -0.742527
 H         0.541376         1.729717         0.767724
 H        -0.393366         0.690793         1.857213
 H        -0.687916        -0.732793        -0.832748
 H        -0.856841         3.450825         1.729592
