19
Iteration:  3729charge 0 multiplicity 1
 O        -3.428753         4.791262         2.027413
 C        -2.929191         3.876669         1.058509
 C        -2.952428         2.469217         1.570296
 C        -2.712535         1.490119         0.474318
 C        -1.361010         2.202587         0.162166
 C        -0.139539         1.403432         0.335258
 C        -0.172255         0.005685        -0.240967
 O         0.560858        -0.899149        -0.076042
 C        -1.654569         3.097254         1.282291
 H        -2.910183         5.553066         1.864200
 H        -3.083722         4.086566        -0.062050
 H        -3.105782         2.171422         2.658832
 H        -2.601089         0.362527         0.857615
 H        -3.234050         1.572068        -0.523095
 H        -1.365207         2.766885        -0.796750
 H         0.785813         1.733219        -0.099720
 H         0.192567         1.277684         1.473405
 H        -1.099808        -0.244547        -0.993772
 H        -0.952108         3.473568         1.944954
