19
Iteration:  4462charge 0 multiplicity 1
 O        -3.115950         4.930071         2.009018
 C        -2.467760         4.085764         1.184330
 C        -3.298154         2.906794         0.752259
 C        -2.362708         2.235820        -0.316972
 C        -1.253688         2.058074         0.713855
 C        -0.794761         0.612106         1.023810
 C        -0.078213        -0.058489        -0.237835
 O         0.703512        -0.966092        -0.241232
 C        -2.234348         2.651363         1.711265
 H        -2.429877         5.212091         2.594497
 H        -1.735858         4.405044         0.401207
 H        -4.373184         2.674162         0.732977
 H        -2.648555         1.312335        -0.974370
 H        -1.904614         2.959398        -1.068440
 H        -0.382271         2.670196         0.609764
 H        -0.119219         0.543360         1.881322
 H        -1.484254        -0.261804         1.249020
 H        -0.498774         0.360629        -1.215037
 H        -2.257004         2.374176         2.776536
