19
Iteration:  2107
 O        -3.808679         4.696403         1.155784
 C        -3.471469         3.353436         1.190120
 C        -2.336932         3.042026         2.048506
 C        -2.129180         1.589331         2.191169
 C        -1.705516         1.444874         0.678289
 C        -0.246786         0.928634         0.681979
 C         0.287018         0.692975        -0.646994
 O         0.809920        -0.349628        -1.012388
 C        -2.052608         3.001463         0.529756
 H        -4.223864         4.941944         0.330571
 H        -4.327985         2.585187         1.161651
 H        -1.910972         3.879349         2.663273
 H        -1.368273         1.247011         2.816142
 H        -3.064919         0.917532         2.460885
 H        -2.356264         0.679502         0.256669
 H         0.404981         1.706516         1.129032
 H        -0.259916        -0.106370         1.298145
 H         0.199265         1.558316        -1.447457
 H        -1.558675         3.991860         0.152319
