19
Iteration:  2676charge 0 multiplicity 1
 O        -3.692982         4.432871         0.578688
 C        -3.224026         3.119201         0.919094
 C        -2.349133         3.083392         2.110154
 C        -2.071220         1.659118         2.534417
 C        -1.600584         1.267049         1.095306
 C        -0.104294         0.860044         0.956753
 C         0.391003         0.830188        -0.431065
 O        -0.127579         0.391776        -1.442988
 C        -1.798075         2.728994         0.695285
 H        -3.827217         4.377748        -0.412753
 H        -4.165999         2.394371         0.888236
 H        -2.137382         3.920224         2.781617
 H        -1.485843         1.478655         3.569897
 H        -2.843099         1.018118         2.711315
 H        -2.257933         0.547835         0.459941
 H         0.475837         1.513396         1.494127
 H        -0.161871        -0.169760         1.342513
 H         1.323862         1.488303        -0.503322
 H        -1.056509         3.261197         0.101043
