19
Iteration:  4126
 O        -3.206663         4.782744         1.949974
 C        -2.654221         3.969685         1.021472
 C        -3.259040         2.595511         1.113357
 C        -2.700283         1.670954         0.000056
 C        -1.177971         2.090847         0.447678
 C        -0.266409         0.927240         1.103826
 C         0.426313        -0.072557         0.238436
 O        -0.107862        -0.481510        -0.825011
 C        -1.811445         2.876149         1.562465
 H        -2.572583         5.424167         2.251833
 H        -2.188053         4.472570         0.097218
 H        -4.172496         2.594286         1.702853
 H        -3.008480         0.528115         0.060316
 H        -2.808272         2.104367        -0.971746
 H        -0.652814         2.726662        -0.383457
 H         0.440103         1.414293         1.835494
 H        -0.937437         0.314399         1.754801
 H         1.436872        -0.390539         0.464933
 H        -1.522389         2.874740         2.555136
