19
Iteration:  2145charge 0 multiplicity 1
 O        -3.673946         4.664435         0.990217
 C        -3.368587         3.272175         1.138317
 C        -2.322900         2.991915         2.068226
 C        -2.192867         1.478095         2.324960
 C        -1.794940         1.327059         0.811957
 C        -0.231638         1.164379         0.680757
 C         0.413488         0.875771        -0.616429
 O         0.511730        -0.272666        -1.082076
 C        -2.067912         2.846710         0.549179
 H        -3.876370         4.630756         0.004928
 H        -4.206734         2.662523         1.129720
 H        -1.853621         3.769448         2.669265
 H        -1.304089         1.237867         3.094069
 H        -3.170290         1.031302         2.626273
 H        -2.377720         0.628831         0.178534
 H         0.187564         2.103680         1.057707
 H         0.095621         0.400187         1.260201
 H         0.946326         1.817127        -1.031026
 H        -1.386540         3.556429         0.179979
