19
Iteration:   482charge 0 multiplicity 1
 O        -3.392665         4.994494         1.736751
 C        -2.912441         3.923292         0.936237
 C        -3.169426         2.429135         1.430930
 C        -2.611082         1.412363         0.341609
 C        -1.243657         2.041559         0.397149
 C        -0.344346         0.986264         1.007555
 C         0.157083        -0.248513         0.272396
 O         0.515590        -0.267019        -0.874979
 C        -1.771415         3.050326         1.422552
 H        -3.061096         5.852605         1.346504
 H        -3.107201         4.062481        -0.170424
 H        -3.783969         2.196649         2.289241
 H        -2.453780         0.361197         0.785153
 H        -3.310631         1.138340        -0.466571
 H        -0.872764         2.603777        -0.549521
 H         0.630113         1.478758         1.290428
 H        -0.821037         0.688027         1.867672
 H         0.477157        -1.002018         1.070844
 H        -1.237321         3.439322         2.255072
