19
Iteration:  1727charge 0 multiplicity 1
 O        -3.321471         4.714344         0.648541
 C        -3.206250         3.283175         0.916155
 C        -2.305496         3.054298         2.068358
 C        -2.352096         1.418700         2.402857
 C        -1.739537         1.200588         0.964808
 C        -0.301623         0.573473         1.034502
 C         0.401571         0.454322        -0.308607
 O        -0.013966         0.815020        -1.403258
 C        -1.831354         2.728195         0.672667
 H        -3.603050         4.949225        -0.230212
 H        -4.124106         2.718120         0.659525
 H        -2.060126         3.880108         2.776258
 H        -1.666693         1.245321         3.302220
 H        -3.360308         1.162513         2.561132
 H        -2.378898         0.469846         0.338901
 H         0.275559         1.090851         1.761072
 H        -0.303201        -0.420915         1.495475
 H         1.469692         0.059180        -0.454649
 H        -1.192647         3.442333         0.023042
