19
Iteration:   788charge 0 multiplicity 1
 O        -3.418161         5.024256         1.789022
 C        -3.123786         3.892703         1.039409
 C        -3.114677         2.630040         1.725929
 C        -2.963559         1.516740         0.592743
 C        -1.505343         1.913300         0.243488
 C        -0.274759         1.023914         0.683013
 C         0.065239        -0.195669        -0.283075
 O         1.227401        -0.541391        -0.357805
 C        -1.711959         3.139997         1.208126
 H        -3.044191         5.857018         1.391611
 H        -3.546586         3.844334         0.008263
 H        -3.282772         2.449332         2.745450
 H        -3.109026         0.506954         1.082813
 H        -3.786477         1.590215        -0.046537
 H        -1.413377         2.116678        -0.839767
 H         0.743478         1.461906         0.798283
 H        -0.527686         0.372354         1.587886
 H        -0.813140        -0.708188        -0.807373
 H        -0.913744         3.319542         1.894083
