19
Iteration:  2427charge 0 multiplicity 1
 O        -3.735927         4.332623         0.588674
 C        -3.335818         3.134777         1.067272
 C        -2.248363         3.166313         2.038367
 C        -1.980097         1.786176         2.612647
 C        -1.796596         1.206614         1.203989
 C        -0.237059         0.689424         0.968073
 C         0.397543         0.430612        -0.452130
 O         0.351178         1.069120        -1.483847
 C        -2.132408         2.504361         0.476372
 H        -3.876849         4.283502        -0.394356
 H        -4.203473         2.385006         1.316744
 H        -1.772345         4.125765         2.319715
 H        -1.141611         1.848875         3.200383
 H        -2.915845         1.530272         3.195283
 H        -2.335928         0.249824         0.873294
 H         0.507681         1.361196         1.267026
 H         0.007872        -0.167801         1.602339
 H         1.138937        -0.419931        -0.453333
 H        -1.593121         2.976588        -0.417256
