19
Iteration:   264charge 0 multiplicity 1
 O        -3.380679         4.893419         1.853316
 C        -2.847835         3.922655         0.894954
 C        -3.092671         2.437285         1.081616
 C        -2.549490         1.585655        -0.107626
 C        -1.151000         2.031688         0.384779
 C        -0.137489         1.075940         1.248830
 C         0.502708         0.106048         0.235254
 O        -0.223319        -0.557274        -0.528499
 C        -1.727031         2.941550         1.483501
 H        -4.183595         4.494994         2.261970
 H        -2.640504         4.279731        -0.089920
 H        -3.646010         1.947530         1.939770
 H        -2.730087         0.500944         0.227030
 H        -2.985341         1.944018        -1.131348
 H        -0.447576         2.473677        -0.262941
 H         0.464178         1.793275         1.856869
 H        -0.693668         0.402022         1.968739
 H         1.628175        -0.015607         0.100119
 H        -1.402206         3.176050         2.494212
