19
Iteration:  3540
 O        -3.596413         4.756685         1.759994
 C        -2.956499         3.710631         1.076396
 C        -2.806927         2.480860         1.874440
 C        -2.386983         1.300288         0.991683
 C        -1.359377         2.131005         0.238852
 C         0.049546         1.488687         0.429578
 C         0.273089         0.040705        -0.030128
 O        -0.319981        -0.772224        -0.756720
 C        -1.574657         3.282655         1.161038
 H        -3.534722         5.612916         1.229535
 H        -3.329704         3.621812         0.031067
 H        -3.174814         2.282027         2.900554
 H        -1.862365         0.594199         1.555303
 H        -3.121873         0.823141         0.285025
 H        -1.408261         2.318502        -0.903808
 H         0.897900         1.926914        -0.142190
 H         0.482384         1.601254         1.540991
 H         1.302258        -0.135077         0.202467
 H        -0.800471         3.953224         1.566588
