19
Iteration:  3326charge 0 multiplicity 1
 O        -3.321081         4.905813         1.134887
 C        -3.048130         3.488615         0.957536
 C        -2.631501         2.804333         2.126688
 C        -2.636112         1.291450         1.935537
 C        -1.530836         1.410138         0.760736
 C        -0.155505         0.848728         0.944199
 C         0.463821         0.499458        -0.465077
 O        -0.187886         0.063314        -1.364335
 C        -1.670127         2.987447         0.859564
 H        -2.996621         5.433245         0.376175
 H        -3.793017         3.064895         0.317814
 H        -2.470577         3.213654         3.164777
 H        -2.215046         0.914719         2.893322
 H        -3.584490         0.957278         1.741683
 H        -1.898665         0.982444        -0.137924
 H         0.666071         1.450113         1.426024
 H        -0.210907        -0.204397         1.443788
 H         1.577506         0.618848        -0.458661
 H        -0.769658         3.701410         0.653660
