19
Iteration:  4046charge 0 multiplicity 1
 O        -3.140367         4.987982         1.755229
 C        -2.659869         3.948104         0.864070
 C        -3.279130         2.612517         1.318231
 C        -2.824357         1.562824         0.411281
 C        -1.262609         1.826171         0.576015
 C        -0.537077         0.605402         1.160257
 C         0.053862        -0.316055         0.091265
 O         0.529820         0.066824        -1.008376
 C        -1.680691         2.979364         1.548305
 H        -2.576394         5.772354         1.763147
 H        -2.622650         4.147893        -0.221298
 H        -4.034535         2.533112         2.096381
 H        -3.159812         0.521139         0.546413
 H        -3.101788         1.818555        -0.701138
 H        -0.804635         2.130838        -0.367458
 H         0.337426         1.006072         1.770503
 H        -1.230942         0.042254         1.852421
 H         0.289823        -1.390910         0.376821
 H        -1.357447         3.523624         2.508330
