19
Iteration:  2678charge 0 multiplicity 1
 O        -3.701168         4.443211         0.591176
 C        -3.228951         3.116709         0.908320
 C        -2.348759         3.090048         2.107439
 C        -2.074118         1.666577         2.549107
 C        -1.613529         1.267589         1.120062
 C        -0.091200         0.850526         0.941894
 C         0.387699         0.821810        -0.436073
 O        -0.105289         0.372123        -1.460569
 C        -1.808565         2.731895         0.697443
 H        -3.804384         4.413854        -0.362585
 H        -4.130706         2.411394         0.884679
 H        -2.239857         4.015991         2.854078
 H        -1.482850         1.509904         3.509261
 H        -2.862144         0.931632         2.633956
 H        -2.227865         0.573452         0.460871
 H         0.520425         1.528789         1.583244
 H        -0.153384        -0.129911         1.302696
 H         1.338340         1.472074        -0.507914
 H        -1.066241         3.284496         0.056883
