19
Iteration:  4007
 O        -3.088834         5.052847         1.517767
 C        -2.525333         3.838775         0.953284
 C        -3.201374         2.547760         1.447622
 C        -2.884783         1.500635         0.483895
 C        -1.361354         1.764007         0.532152
 C        -0.563490         0.589124         1.179013
 C        -0.135496        -0.261291        -0.052720
 O         0.638222         0.353418        -0.857278
 C        -1.702802         2.834539         1.564030
 H        -2.261667         5.621521         1.392829
 H        -2.503715         3.781053        -0.190267
 H        -4.073000         2.538571         2.205832
 H        -3.193255         0.560674         1.031312
 H        -3.352211         1.753498        -0.494918
 H        -0.772935         2.183379        -0.356624
 H         0.420553         0.929550         1.577772
 H        -1.073583         0.066127         1.978087
 H        -0.581698        -1.228720        -0.210236
 H        -1.206479         3.143799         2.418553
