19
Iteration:  3029charge 0 multiplicity 1
 O        -3.349327         4.726867         0.818908
 C        -3.182540         3.377403         1.009193
 C        -2.252373         2.985601         2.141162
 C        -2.345495         1.486789         2.409442
 C        -1.921198         1.178280         0.968570
 C        -0.466746         0.706193         0.800135
 C        -0.182508         0.515695        -0.682080
 O         0.936128         0.669680        -1.119148
 C        -1.974356         2.647156         0.560009
 H        -3.812281         4.948369        -0.048558
 H        -4.142736         2.867216         1.049361
 H        -1.796922         3.821093         2.768815
 H        -1.680339         0.851076         3.235547
 H        -3.285928         1.077767         2.793308
 H        -2.669969         0.445549         0.477886
 H         0.277990         1.254840         1.289098
 H        -0.587230        -0.159032         1.345235
 H        -1.008681         0.297922        -1.380785
 H        -1.074632         3.103115        -0.025194
