19
Iteration:  4683charge 0 multiplicity 1
 O        -2.909146         4.922146         2.192242
 C        -2.264764         4.017450         1.240449
 C        -3.187168         3.130480         0.497922
 C        -2.435271         2.309821        -0.506032
 C        -1.437118         1.821089         0.525865
 C        -1.092612         0.373527         1.044152
 C        -0.004015        -0.434749         0.401432
 O         0.795991        -0.248233        -0.549407
 C        -2.352847         2.500915         1.649583
 H        -2.324970         4.859108         2.935575
 H        -1.414562         4.568376         0.638536
 H        -4.273257         3.278009         0.374147
 H        -3.085401         1.388126        -0.779764
 H        -2.054477         2.772053        -1.452621
 H        -0.524073         2.396607         0.455505
 H        -0.861007         0.409929         2.108528
 H        -1.937158        -0.395433         0.949443
 H        -0.095338        -1.400504         0.818589
 H        -2.627888         2.314213         2.652914
