19
Iteration:  1083charge 0 multiplicity 1
 O        -3.561464         4.731291         1.719338
 C        -3.242727         3.589007         0.903646
 C        -2.774836         2.457698         1.853491
 C        -2.449267         1.271053         0.894959
 C        -1.296837         2.110825         0.238483
 C         0.183043         1.464424         0.559823
 C         0.409136         0.289347        -0.280672
 O        -0.146575        -0.793526        -0.272202
 C        -1.795630         3.282721         1.078225
 H        -3.471792         5.496531         1.152531
 H        -3.788160         3.568407        -0.046916
 H        -2.881632         2.296015         2.870480
 H        -2.031336         0.317041         1.445276
 H        -3.394335         0.971825         0.380639
 H        -1.074470         2.258718        -0.794759
 H         1.091387         2.084342         0.226658
 H         0.325679         1.260048         1.615564
 H         1.166978         0.486759        -1.185855
 H        -1.352785         4.240080         1.441731
