19
Iteration:  2852
 O        -3.659081         4.713017         1.009295
 C        -3.491062         3.343760         1.103680
 C        -2.569647         2.974792         2.234352
 C        -2.218334         1.476096         2.332709
 C        -1.680337         1.483935         0.808248
 C        -0.198470         1.140177         0.557818
 C         0.202547         0.661132        -0.815098
 O         0.793296        -0.383033        -1.046173
 C        -1.971662         2.978431         0.758034
 H        -3.470348         5.071485         0.083706
 H        -4.182289         2.553048         0.704098
 H        -2.674210         3.649028         3.117337
 H        -1.222737         1.528688         2.934050
 H        -3.010994         0.811794         2.473482
 H        -2.222790         0.787797         0.180363
 H         0.461968         1.941531         0.664611
 H         0.426680         0.341545         1.223198
 H        -0.166805         1.244050        -1.687370
 H        -1.280714         3.671860         0.332031
