19
Iteration:  4652charge 0 multiplicity 1
 O        -3.107977         4.878830         2.182776
 C        -2.177354         4.137009         1.236495
 C        -3.067158         3.066820         0.561834
 C        -2.486175         2.155356        -0.459524
 C        -1.327824         1.842860         0.497597
 C        -1.267939         0.305908         0.943876
 C        -0.146919        -0.551864         0.215844
 O         0.834436        -0.110052        -0.365396
 C        -2.055518         2.680576         1.659968
 H        -2.484557         5.125688         2.935245
 H        -1.526432         4.847683         0.648354
 H        -4.166754         3.213563         0.642473
 H        -2.987161         1.114147        -0.525117
 H        -2.267502         2.444675        -1.532835
 H        -0.481618         2.356965         0.248272
 H        -1.022089         0.152611         1.983716
 H        -2.227526        -0.216386         0.769405
 H        -0.262392        -1.732132         0.441399
 H        -2.144588         2.353399         2.670138
