19
Iteration:  1901charge 0 multiplicity 1
 O        -3.483810         4.682788         0.684989
 C        -3.197624         3.248351         0.893508
 C        -2.367664         3.019595         2.088537
 C        -2.348532         1.530030         2.417342
 C        -1.718941         1.233001         0.991879
 C        -0.260946         0.609446         0.967510
 C         0.134524         0.276364        -0.368113
 O         0.298342         0.941480        -1.362322
 C        -1.765615         2.744043         0.680338
 H        -2.980351         4.840116        -0.130299
 H        -4.126860         2.751924         0.775447
 H        -2.018571         3.872896         2.645641
 H        -1.743337         1.321821         3.263184
 H        -3.306597         1.150418         2.660854
 H        -2.382676         0.598565         0.322281
 H         0.606777         1.231602         1.344969
 H        -0.380151        -0.300581         1.558848
 H         0.224103        -0.848507        -0.545542
 H        -0.952410         3.090589         0.059236
