19
Iteration:  4409
 O        -3.481423         4.679367         2.132452
 C        -2.480796         4.150126         1.152478
 C        -3.067651         2.879186         0.821291
 C        -2.366161         2.282894        -0.389605
 C        -1.026459         2.131196         0.578103
 C        -0.865183         0.632482         0.811889
 C        -0.005469        -0.020799        -0.209826
 O         0.412023        -1.156683        -0.073639
 C        -1.802925         2.916494         1.694420
 H        -3.031100         5.364826         2.615653
 H        -2.112938         4.843291         0.422973
 H        -4.107561         2.655280         1.111325
 H        -2.669632         1.220460        -0.577808
 H        -2.255360         2.956665        -1.204972
 H        -0.017163         2.567319         0.219126
 H        -0.410213         0.399459         1.758593
 H        -1.839376         0.102002         0.661865
 H         0.406911         0.621329        -1.004924
 H        -1.795400         2.802326         2.798374
