19
Iteration:  3292
 O        -3.124252         4.826279         0.998721
 C        -3.035564         3.420507         0.954358
 C        -2.471637         2.786178         2.213010
 C        -2.568703         1.288832         2.061371
 C        -1.711633         1.314199         0.729212
 C        -0.318669         0.863550         0.928641
 C         0.379262         0.620114        -0.332935
 O        -0.162848         0.328286        -1.381097
 C        -1.662335         2.846582         0.743721
 H        -3.413128         5.115786         0.077751
 H        -3.903865         2.979509         0.429611
 H        -2.300430         3.289673         3.193897
 H        -2.054946         0.767454         2.852494
 H        -3.506073         0.824896         1.984432
 H        -2.023752         0.940220        -0.199168
 H         0.145500         1.458664         1.779848
 H        -0.443316        -0.142948         1.499539
 H         1.458943         0.595588        -0.141087
 H        -1.020635         3.626362         0.247441
