19
Iteration:  1502
 O        -3.612400         4.722494         1.263111
 C        -3.085050         3.486988         0.856836
 C        -2.729432         2.665174         2.033613
 C        -2.436598         1.224465         1.684022
 C        -1.378114         1.781698         0.557005
 C         0.075696         1.403642         0.559029
 C         0.491215         0.266129        -0.228843
 O        -0.249969        -0.407536        -0.954208
 C        -1.677847         3.203517         1.044815
 H        -3.565869         5.492882         0.639875
 H        -3.618336         2.898272         0.006304
 H        -2.911805         2.961247         3.067194
 H        -1.872501         0.648004         2.452421
 H        -3.458988         0.692004         1.557940
 H        -1.807481         1.582760        -0.562007
 H         0.515595         2.443504         0.346447
 H         0.392224         1.340885         1.605189
 H         1.586027         0.054150        -0.019653
 H        -0.924409         4.043918         1.082568
