19
Iteration:  1476
 O        -3.735653         4.789210         1.358191
 C        -3.255883         3.525643         0.918631
 C        -2.688494         2.650945         2.027613
 C        -2.288420         1.239692         1.538836
 C        -1.313149         1.906159         0.468543
 C         0.161543         1.396167         0.535126
 C         0.434479         0.003987        -0.061217
 O        -0.194453        -0.456961        -0.993643
 C        -1.757274         3.313701         1.037283
 H        -3.438517         5.540109         0.780554
 H        -3.775392         3.064139         0.077923
 H        -2.894671         2.901869         3.063675
 H        -1.613450         0.636712         2.276352
 H        -3.175909         0.699619         1.226070
 H        -1.644737         1.668308        -0.568438
 H         0.698104         2.053745        -0.160605
 H         0.525390         1.584771         1.540591
 H         1.392086        -0.393479         0.244510
 H        -1.055647         4.071583         1.308827
