19
Iteration:  1452
 O        -3.782315         4.741982         1.443222
 C        -3.272818         3.490588         1.005036
 C        -2.653143         2.644921         2.017806
 C        -2.203397         1.278777         1.361054
 C        -1.285375         2.032311         0.350261
 C         0.171308         1.466009         0.472260
 C         0.271214        -0.035467         0.055874
 O        -0.144275        -0.537666        -0.953464
 C        -1.713780         3.353596         1.009406
 H        -3.521048         5.441824         0.825317
 H        -3.775227         3.037829         0.196347
 H        -2.861531         2.790420         3.123889
 H        -1.462759         0.840335         2.081595
 H        -2.986561         0.584800         0.960853
 H        -1.647152         1.754548        -0.599616
 H         0.922231         2.060142        -0.036580
 H         0.230093         1.502947         1.612831
 H         0.770550        -0.630171         0.807837
 H        -0.959843         4.158467         1.130691
