19
Iteration:  3998
 O        -3.016999         5.057404         1.479091
 C        -2.604930         3.881572         0.877043
 C        -3.160510         2.538433         1.513933
 C        -2.941122         1.473169         0.434098
 C        -1.394658         1.729122         0.628985
 C        -0.548347         0.560415         1.184669
 C        -0.108080        -0.216999        -0.123158
 O         0.653768         0.347230        -0.834263
 C        -1.748250         2.844493         1.637825
 H        -2.253561         5.708928         1.532356
 H        -2.502947         3.954787        -0.220453
 H        -3.997268         2.649685         2.256335
 H        -3.202807         0.446524         0.762410
 H        -3.556632         1.580503        -0.572934
 H        -0.828739         2.050943        -0.213105
 H         0.484547         1.032999         1.356211
 H        -0.934419         0.125029         2.132664
 H        -0.515009        -1.221423        -0.418072
 H        -1.114033         3.087236         2.435956
