19
Iteration:  2033
 O        -3.788718         4.677537         0.974657
 C        -3.361190         3.387796         1.073225
 C        -2.464210         3.010942         2.265046
 C        -2.102530         1.527698         2.287131
 C        -1.778695         1.520279         0.816921
 C        -0.335848         0.996156         0.500716
 C        -0.028708         0.310616        -0.798209
 O         1.088225        -0.101909        -1.048959
 C        -1.929353         3.075317         0.812627
 H        -3.634833         4.850996         0.022362
 H        -4.098460         2.752981         0.689098
 H        -2.274263         3.678987         3.125219
 H        -1.295822         1.332233         3.042710
 H        -2.954123         0.830020         2.513833
 H        -2.611857         1.071381         0.165603
 H         0.314726         1.730686         0.968460
 H        -0.279652         0.181100         1.141915
 H        -0.989224        -0.001731        -1.368571
 H        -1.265830         4.009952         0.584487
