19
Iteration:  2600
 O        -3.535170         4.388063         0.459131
 C        -3.219166         3.020036         0.839059
 C        -2.327491         3.019875         2.014448
 C        -2.077633         1.677489         2.627019
 C        -1.525181         1.139419         1.275738
 C        -0.067597         0.896410         0.991874
 C         0.359190         0.673923        -0.429616
 O        -0.363990         1.009786        -1.344691
 C        -1.858055         2.469051         0.624964
 H        -3.482523         4.402449        -0.485805
 H        -4.096434         2.321221         0.626907
 H        -2.186899         3.945261         2.418610
 H        -1.293170         1.595555         3.491072
 H        -2.895151         1.070532         2.997584
 H        -2.086747         0.264088         0.737904
 H         0.456657         1.819158         1.367513
 H         0.250402         0.065958         1.619119
 H         1.284232         0.104748        -0.582995
 H        -1.320235         2.909154        -0.176984
