19
Iteration:   477
 O        -3.373435         4.946206         1.737467
 C        -2.859979         3.897788         0.926300
 C        -3.213806         2.393773         1.379615
 C        -2.629298         1.376490         0.362525
 C        -1.244945         2.117845         0.396487
 C        -0.302640         0.992505         0.984872
 C         0.183707        -0.230565         0.308309
 O         0.447556        -0.244352        -0.862098
 C        -1.749287         3.104600         1.427664
 H        -3.111304         5.716746         1.250565
 H        -3.027504         4.107803        -0.137572
 H        -3.781282         2.062704         2.268071
 H        -2.503221         0.446820         0.814270
 H        -3.257884         1.260850        -0.530061
 H        -0.978668         2.514510        -0.553191
 H         0.524050         1.550126         1.417771
 H        -0.880696         0.587395         1.943364
 H         0.350828        -1.090850         1.030812
 H        -1.042005         3.378463         2.268516
