19
Iteration:  4943charge 0 multiplicity 1
 O        -3.662653         4.393420         2.012506
 C        -2.428765         4.079716         1.277218
 C        -2.651633         3.013625         0.231745
 C        -1.147372         2.676041        -0.363694
 C        -0.746140         2.080937         1.032189
 C        -0.752104         0.613266         1.417709
 C        -0.669564        -0.498887         0.256774
 O        -0.407259        -0.428272        -0.917984
 C        -2.087655         2.584487         1.565684
 H        -3.534349         4.273627         3.015633
 H        -1.700076         4.821445         1.338803
 H        -3.588265         2.966608        -0.328445
 H        -1.278527         2.083384        -1.320416
 H        -0.571457         3.562348        -0.455313
 H         0.062314         2.565572         1.368523
 H         0.197053         0.458811         2.024835
 H        -1.501797         0.357459         2.071450
 H        -0.764997        -1.583622         0.697651
 H        -2.752218         2.037219         2.268008
