19
Iteration:    35charge 0 multiplicity 1
 O        -3.508405         4.967389         1.678458
 C        -2.763451         3.953172         0.991350
 C        -3.138107         2.434633         1.063028
 C        -2.256142         1.800153        -0.023012
 C        -0.942362         2.180065         0.819699
 C        -0.195367         0.819008         1.262806
 C         0.233770         0.210059        -0.142626
 O        -0.062821        -0.910690        -0.611551
 C        -1.944214         2.925783         1.774104
 H        -4.391938         4.972684         1.260915
 H        -2.319261         4.282304         0.038783
 H        -4.179693         2.307104         1.164794
 H        -2.328278         0.701881        -0.293979
 H        -2.268670         2.342974        -0.967849
 H        -0.233764         2.858037         0.338066
 H         0.555598         0.974521         2.047271
 H        -1.000884         0.143862         1.583688
 H         0.740096         0.911312        -0.762848
 H        -1.693540         3.291679         2.805052
