19
Iteration:  2351charge 0 multiplicity 1
 O        -3.589708         4.344546         0.523886
 C        -3.250575         3.010621         0.885716
 C        -2.310647         3.095079         2.026087
 C        -2.074724         1.642691         2.467957
 C        -1.507775         1.220493         1.146024
 C        -0.014117         0.889746         1.071758
 C         0.348557         0.522033        -0.360213
 O        -0.264940         1.058260        -1.265656
 C        -1.958668         2.538361         0.523062
 H        -3.870040         4.438526        -0.408014
 H        -4.233520         2.328618         0.866923
 H        -1.859338         4.116801         2.393261
 H        -1.433083         1.508312         3.240511
 H        -2.911323         0.991123         2.758164
 H        -1.876948         0.185906         0.678297
 H         0.599999         1.703889         1.498823
 H         0.453194         0.009404         1.668324
 H         1.075445        -0.264707        -0.521848
 H        -1.400973         3.129657        -0.262190
