19
Iteration:    83charge 0 multiplicity 1
 O        -3.503753         4.782887         1.545855
 C        -2.569653         3.930834         0.959578
 C        -3.172919         2.585940         0.976028
 C        -2.408582         1.634313         0.045634
 C        -1.068091         2.088421         0.801596
 C        -0.086111         0.944419         1.245498
 C         0.323647         0.236007        -0.063173
 O        -0.179319        -0.704402        -0.615077
 C        -1.986699         2.864008         1.830205
 H        -3.042843         5.296706         2.266265
 H        -1.916333         4.168233         0.066276
 H        -4.260933         2.485947         1.266780
 H        -2.488896         0.474971         0.114267
 H        -2.653664         1.959536        -1.110726
 H        -0.448608         2.753593         0.218271
 H         0.781609         1.352812         1.932690
 H        -0.851081         0.387221         1.869297
 H         0.739663         1.029597        -0.673064
 H        -1.650298         2.995843         2.828624
