19
Iteration:  4502charge 0 multiplicity 1
 O        -3.095335         5.081509         2.054581
 C        -2.268792         4.048870         1.329559
 C        -3.205573         3.114625         0.504419
 C        -2.464563         2.005679        -0.324943
 C        -1.362085         1.903371         0.714561
 C        -0.777526         0.544085         1.011236
 C        -0.199308        -0.177152        -0.198210
 O         0.875072        -0.717529        -0.275807
 C        -2.364049         2.558821         1.676367
 H        -2.747858         5.206176         2.987596
 H        -1.341936         4.512106         0.980993
 H        -4.253736         3.253613         0.773111
 H        -3.054272         1.163923        -0.201123
 H        -2.277625         2.234568        -1.368229
 H        -0.499925         2.572890         0.410261
 H         0.093178         0.743792         1.705219
 H        -1.511226        -0.052512         1.521777
 H        -0.757208         0.035504        -1.155547
 H        -2.719084         2.106370         2.561769
