19
Iteration:  4214charge 0 multiplicity 1
 O        -3.591519         4.683502         1.842919
 C        -2.672694         3.914308         1.195305
 C        -3.014390         2.451057         0.985032
 C        -2.150465         1.966820        -0.161880
 C        -0.814550         2.224048         0.579095
 C        -0.163839         1.044653         1.187339
 C         0.058390         0.155104        -0.181911
 O        -0.561227        -0.857749        -0.450773
 C        -1.667279         2.827854         1.679291
 H        -3.266959         5.438452         2.336969
 H        -2.357369         4.299616         0.202878
 H        -3.826437         1.991413         1.487925
 H        -2.305177         0.863084        -0.463065
 H        -2.166990         2.471236        -1.116189
 H        -0.075338         2.813998         0.150660
 H         0.823831         1.379129         1.536008
 H        -0.835904         0.404697         1.782997
 H         0.594071         0.693982        -1.062822
 H        -1.397168         2.986909         2.713966
