19
Iteration:   473
 O        -3.358816         4.903954         1.738314
 C        -2.845483         3.863863         0.920379
 C        -3.223712         2.383869         1.343246
 C        -2.660271         1.374365         0.377781
 C        -1.250987         2.143369         0.389972
 C        -0.288738         1.014848         0.996392
 C         0.204118        -0.207792         0.342034
 O         0.401434        -0.235426        -0.866146
 C        -1.720521         3.130905         1.439243
 H        -3.142492         5.706947         1.188211
 H        -2.917194         4.127827        -0.121574
 H        -3.802000         2.060871         2.227730
 H        -2.567562         0.341645         0.900465
 H        -3.182904         1.361127        -0.645449
 H        -0.952752         2.468316        -0.627859
 H         0.568039         1.567412         1.536687
 H        -0.824935         0.601722         1.894581
 H         0.257427        -1.150931         0.928650
 H        -1.008512         3.371023         2.264570
