19
Iteration:  1754
 O        -3.270760         4.607341         0.472982
 C        -3.130781         3.294768         0.933318
 C        -2.349693         3.066240         2.122115
 C        -2.279410         1.502567         2.458836
 C        -1.769514         1.151947         1.036484
 C        -0.384785         0.406607         0.962825
 C         0.367608         0.568951        -0.307275
 O        -0.077871         1.051838        -1.328031
 C        -1.802806         2.635207         0.658866
 H        -3.341714         4.680736        -0.476087
 H        -4.110941         2.730201         0.874416
 H        -1.871482         3.772978         2.796378
 H        -1.449545         1.496944         3.178210
 H        -3.239282         1.055810         2.939029
 H        -2.506442         0.463498         0.422610
 H         0.253521         0.541973         1.916870
 H        -0.642152        -0.755145         0.991252
 H         1.419832         0.334816        -0.374396
 H        -1.072198         3.244479         0.193546
