19
Iteration:  2078charge 0 multiplicity 1
 O        -3.914864         4.709128         1.162280
 C        -3.381032         3.378956         1.089675
 C        -2.361753         3.106168         2.187971
 C        -2.168993         1.590862         2.280335
 C        -1.778032         1.486175         0.720603
 C        -0.308382         0.910550         0.592780
 C         0.201296         0.504649        -0.773053
 O         1.025682        -0.334838        -1.033049
 C        -1.950273         3.081447         0.649235
 H        -4.313410         4.960359         0.325078
 H        -4.050142         2.594769         0.928113
 H        -2.253058         3.942270         2.818062
 H        -1.269326         1.132556         2.883616
 H        -3.170292         1.082275         2.420481
 H        -2.563427         0.800116         0.248486
 H         0.404059         1.663960         0.953469
 H        -0.299437         0.022321         1.094309
 H        -0.304251         0.862777        -1.650850
 H        -1.294044         3.830380         0.134921
