19
Iteration:  3397charge 0 multiplicity 1
 O        -3.435780         4.934870         1.193744
 C        -3.083744         3.558564         0.939173
 C        -2.722936         2.697239         2.147958
 C        -2.601401         1.242701         1.849778
 C        -1.458598         1.697996         0.741122
 C        -0.045117         1.040749         0.696715
 C         0.450088         0.191735        -0.415562
 O        -0.141706        -0.234802        -1.411631
 C        -1.650887         3.193446         1.191187
 H        -3.345264         5.462952         0.365789
 H        -3.651829         3.247775         0.034815
 H        -2.727427         3.025056         3.187033
 H        -2.114048         0.644025         2.601984
 H        -3.458210         0.683491         1.346602
 H        -1.940257         1.712613        -0.339101
 H         0.721351         1.844707         0.759033
 H         0.188766         0.423137         1.684997
 H         1.522130        -0.007434        -0.229401
 H        -0.944492         3.884155         1.453739
