19
Iteration:   891
 O        -3.581222         4.840947         1.950665
 C        -3.141496         3.837974         1.027754
 C        -3.028188         2.497007         1.679611
 C        -2.683816         1.464081         0.466909
 C        -1.333808         2.221538         0.183025
 C        -0.066333         1.366516         0.223846
 C        -0.076762        -0.151939        -0.206400
 O         0.898419        -0.877116        -0.052874
 C        -1.732064         3.228147         1.306756
 H        -3.380148         5.695845         1.559114
 H        -3.515461         4.106638        -0.032118
 H        -3.533519         2.444121         2.626959
 H        -2.357679         0.598049         0.920921
 H        -3.362934         1.213578        -0.342843
 H        -1.431216         2.756015        -0.743759
 H         0.961933         1.754299        -0.141068
 H         0.016055         0.989192         1.318865
 H        -1.035755        -0.777318        -0.439864
 H        -0.993403         3.806446         1.975660
