19
Iteration:  2061charge 0 multiplicity 1
 O        -3.880562         4.652120         1.103462
 C        -3.353153         3.377564         1.098373
 C        -2.390247         3.077103         2.160868
 C        -2.219106         1.608156         2.305860
 C        -1.763827         1.557186         0.827298
 C        -0.354895         0.897302         0.479986
 C         0.053644         0.379483        -0.919639
 O         1.101408        -0.243171        -0.959414
 C        -1.885570         3.079636         0.752934
 H        -4.067678         4.833236         0.188837
 H        -4.211186         2.656119         0.749184
 H        -2.118945         3.745369         3.016695
 H        -1.427157         1.405933         3.007076
 H        -3.068368         0.943246         2.692027
 H        -2.504085         1.195629         0.132613
 H         0.409296         1.701506         0.760953
 H        -0.085599         0.098563         1.352751
 H        -0.512562         0.877142        -1.811127
 H        -1.295660         3.866498         0.330355
