19
Iteration:   852
 O        -3.378778         4.853096         1.949526
 C        -3.075141         3.867242         0.958375
 C        -2.990094         2.424827         1.581258
 C        -2.774729         1.257979         0.494907
 C        -1.503089         2.053550         0.219324
 C        -0.083441         1.411667         0.630201
 C        -0.148668         0.012512        -0.136923
 O         0.876971        -0.687068        -0.190157
 C        -1.740204         3.153257         1.098486
 H        -2.814488         5.635398         1.752128
 H        -3.439724         4.071706        -0.009014
 H        -3.458291         2.391406         2.549673
 H        -2.615934         0.161208         0.821703
 H        -3.487417         1.265068        -0.404452
 H        -1.317475         2.378569        -0.894491
 H         0.651413         2.135150         0.365214
 H         0.066066         1.331133         1.689428
 H        -1.161311        -0.315567        -0.492595
 H        -0.914407         3.687058         1.565735
