19
Iteration:  2306charge 0 multiplicity 1
 O        -3.700982         4.256849         0.393624
 C        -3.124235         3.094478         0.820054
 C        -2.472876         3.043630         2.171318
 C        -2.015395         1.659932         2.622712
 C        -1.553919         1.327692         1.125124
 C        -0.129421         0.739234         1.003959
 C         0.392029         0.762683        -0.443301
 O        -0.309831         0.770108        -1.421194
 C        -1.695641         2.765035         0.749928
 H        -3.466134         4.230830        -0.572149
 H        -3.848991         2.165650         0.622927
 H        -2.291331         3.881548         2.915021
 H        -1.201508         1.708159         3.233078
 H        -2.736786         0.913028         3.035188
 H        -2.419556         0.578864         0.807559
 H         0.519589         1.309385         1.723816
 H        -0.073752        -0.349836         1.423833
 H         1.472702         0.638362        -0.585667
 H        -0.939716         3.393333         0.396699
