19
Iteration:    39
 O        -3.538453         4.982364         1.669628
 C        -2.762269         3.950679         0.989029
 C        -3.132794         2.432300         1.031679
 C        -2.244115         1.764986         0.012172
 C        -0.923775         2.186890         0.824047
 C        -0.214891         0.796810         1.239045
 C         0.239999         0.216132        -0.149189
 O        -0.083767        -0.875668        -0.593342
 C        -1.897940         2.913788         1.809516
 H        -4.308142         5.183389         1.084523
 H        -2.288258         4.348282         0.047821
 H        -4.222082         2.252651         1.358281
 H        -2.347721         0.662706        -0.311095
 H        -2.245688         2.139914        -1.130285
 H        -0.240163         2.890860         0.348548
 H         0.603138         0.926819         2.053321
 H        -1.030523         0.047550         1.452579
 H         0.699047         1.074837        -0.841427
 H        -1.765690         3.196038         2.872261
