19
Iteration:  2212charge 0 multiplicity 1
 O        -3.646031         4.513100         0.689883
 C        -3.275776         3.131600         0.898189
 C        -2.408324         2.936814         2.132405
 C        -2.175275         1.533841         2.439856
 C        -1.559337         1.333277         1.009213
 C        -0.054096         0.954364         0.964539
 C         0.261803         0.999927        -0.517533
 O         0.001667         0.115262        -1.291985
 C        -1.771612         2.827697         0.669725
 H        -3.951671         4.773524        -0.162818
 H        -3.986181         2.363019         0.702856
 H        -2.556633         3.853074         2.795618
 H        -1.293826         1.600752         3.298395
 H        -2.919418         0.815723         2.817859
 H        -2.116092         0.678459         0.313756
 H         0.655501         1.582418         1.524987
 H         0.159384         0.002556         1.255575
 H         0.917810         1.880037        -0.848808
 H        -1.145363         3.376042        -0.047966
