19
Iteration:  4463
 O        -3.115894         4.933968         2.010634
 C        -2.452797         4.082340         1.182380
 C        -3.304868         2.916482         0.746247
 C        -2.359285         2.227930        -0.313844
 C        -1.262754         2.049566         0.717734
 C        -0.788503         0.621385         1.018540
 C        -0.086017        -0.059311        -0.236977
 O         0.707289        -0.960177        -0.239438
 C        -2.241871         2.645103         1.709778
 H        -2.412906         5.196109         2.595868
 H        -1.736885         4.382918         0.420876
 H        -4.367788         2.674866         0.750932
 H        -2.647336         1.319773        -0.993354
 H        -1.901766         2.919480        -1.056178
 H        -0.388520         2.695487         0.606336
 H        -0.138994         0.543474         1.867745
 H        -1.438314        -0.274099         1.244761
 H        -0.516295         0.354145        -1.224847
 H        -2.268622         2.376268         2.802879
