19
Iteration:  2317
 O        -3.670247         4.289766         0.436667
 C        -3.180401         3.028753         0.764555
 C        -2.393276         3.067859         2.123439
 C        -2.005197         1.622886         2.572158
 C        -1.547994         1.219450         1.201148
 C        -0.140771         0.787527         1.014278
 C         0.390925         0.715376        -0.394531
 O        -0.327686         0.858138        -1.393044
 C        -1.738897         2.730102         0.754510
 H        -3.726326         4.498094        -0.488694
 H        -3.900761         2.110913         0.542135
 H        -2.185852         4.095601         2.569467
 H        -1.220696         1.705981         3.222786
 H        -2.846123         1.109898         3.070373
 H        -2.186165         0.692488         0.388874
 H         0.562837         1.535001         1.432784
 H         0.097848        -0.218217         1.532037
 H         1.400299         0.385279        -0.458121
 H        -0.992549         3.264720         0.228240
