19
Iteration:  3021
 O        -3.370405         4.769236         0.851323
 C        -3.249282         3.353121         1.050536
 C        -2.254928         2.985535         2.146454
 C        -2.328683         1.462075         2.411106
 C        -1.929643         1.234011         0.897095
 C        -0.439121         0.716730         0.753467
 C        -0.173269         0.480306        -0.680766
 O         0.975727         0.598023        -1.079361
 C        -2.002326         2.709534         0.583784
 H        -3.696395         4.689526        -0.078164
 H        -4.207538         2.771957         0.834523
 H        -1.727166         3.725480         2.875828
 H        -1.484957         1.127029         2.986520
 H        -3.321799         1.199184         2.795176
 H        -2.617427         0.515453         0.447102
 H         0.447036         1.263046         1.091395
 H        -0.493503        -0.326438         1.395863
 H        -1.106819         0.306848        -1.311180
 H        -1.246061         3.174119        -0.145137
