19
Iteration:  3966
 O        -2.851479         5.061109         1.469354
 C        -2.651847         3.854740         0.847583
 C        -3.366942         2.621456         1.444444
 C        -3.006810         1.458801         0.613240
 C        -1.435949         1.708690         0.706196
 C        -0.535483         0.560780         1.196816
 C        -0.028858        -0.103986        -0.174691
 O         0.845416         0.253883        -0.980980
 C        -1.890848         2.840278         1.672195
 H        -2.121815         5.675010         1.617182
 H        -2.458691         3.978067        -0.189580
 H        -4.294142         2.668751         2.092191
 H        -3.185887         0.553239         1.210172
 H        -3.522773         1.289338        -0.422452
 H        -1.066069         2.071584        -0.191040
 H         0.368725         1.059289         1.730793
 H        -1.045333        -0.121904         1.931703
 H        -0.585758        -1.018309        -0.530628
 H        -1.283005         3.127356         2.470616
