19
Iteration:   903charge 0 multiplicity 1
 O        -3.691684         4.857553         1.928752
 C        -3.029159         3.890724         1.114047
 C        -3.008122         2.460973         1.624546
 C        -2.642241         1.404583         0.494824
 C        -1.374724         2.242225         0.158612
 C        -0.121603         1.257297         0.221699
 C        -0.093979        -0.164400        -0.210420
 O         0.898606        -0.870336        -0.020482
 C        -1.679147         3.338233         1.304035
 H        -3.376161         5.764291         1.650252
 H        -3.334344         3.856289         0.024385
 H        -3.335782         2.214933         2.587662
 H        -2.486866         0.445438         0.857893
 H        -3.399380         1.326135        -0.335275
 H        -1.328290         2.660249        -0.825329
 H         0.749529         1.797960        -0.325225
 H         0.321881         1.353810         1.276400
 H        -1.030987        -0.440960        -0.858587
 H        -1.013706         3.638981         2.175413
