19
Iteration:  4451
 O        -3.163959         4.958264         2.040710
 C        -2.566054         4.041271         1.167047
 C        -3.258781         2.803614         0.704904
 C        -2.355863         2.327269        -0.389672
 C        -1.181685         2.043440         0.722773
 C        -0.810609         0.526414         1.016781
 C        -0.066222        -0.036596        -0.206822
 O         0.679750        -1.021778        -0.247673
 C        -2.091284         2.719376         1.756570
 H        -2.555518         5.390841         2.669222
 H        -1.928355         4.630804         0.480295
 H        -4.359372         2.813869         0.820293
 H        -2.772267         1.308667        -0.721675
 H        -2.292183         3.071841        -1.245304
 H        -0.265524         2.564858         0.520423
 H        -0.140587         0.512965         1.879203
 H        -1.824147         0.157941         1.255894
 H        -0.256482         0.524799        -1.188923
 H        -2.196185         2.503547         2.821824
