19
Iteration:  4190
 O        -3.509880         4.643565         1.889779
 C        -2.674987         3.958869         1.035223
 C        -2.990534         2.480342         1.013875
 C        -2.305147         1.872362        -0.092967
 C        -0.929895         2.257565         0.625634
 C        -0.232364         0.957503         1.057596
 C         0.231537         0.059737        -0.085349
 O        -0.502307        -0.730261        -0.535683
 C        -1.724897         2.952627         1.743068
 H        -2.900985         5.271965         2.283250
 H        -2.121277         4.462122         0.261790
 H        -3.945184         2.150047         1.377426
 H        -2.488582         0.697713        -0.181539
 H        -2.489497         2.222992        -1.136068
 H        -0.300239         2.837966         0.059350
 H         0.820880         1.082883         1.439390
 H        -1.089920         0.441517         1.608818
 H         1.347091         0.163481        -0.431427
 H        -1.476265         3.156411         2.715828
