19
Iteration:  4540
 O        -3.083346         4.905543         2.023809
 C        -2.255530         4.099228         1.206919
 C        -3.178732         3.132346         0.622472
 C        -2.528790         2.160038        -0.339088
 C        -1.392677         1.800917         0.688818
 C        -0.967416         0.365080         1.078809
 C        -0.244415        -0.342632        -0.148358
 O         0.949445        -0.429251        -0.282070
 C        -2.188162         2.675617         1.663933
 H        -2.622312         5.038484         2.858612
 H        -1.334653         4.504756         0.656695
 H        -4.234041         3.358025         0.679281
 H        -3.044527         1.125276        -0.550783
 H        -2.140878         2.464899        -1.372429
 H        -0.501203         2.344314         0.607792
 H        -0.144490         0.506373         1.754113
 H        -1.818436        -0.093995         1.690730
 H        -0.879979        -0.566365        -1.015526
 H        -2.363655         2.595327         2.774125
