19
Iteration:   308charge 0 multiplicity 1
 O        -3.349857         4.698187         1.736141
 C        -2.748160         3.895798         0.820462
 C        -3.140679         2.432742         0.986746
 C        -2.413853         1.486363         0.164351
 C        -1.090969         2.160225         0.691619
 C        -0.072153         1.196756         1.148020
 C         0.415261         0.085323         0.055794
 O        -0.315417        -0.578465        -0.638686
 C        -1.935438         3.000904         1.702331
 H        -3.647847         5.567902         1.401832
 H        -2.339224         4.451937         0.024666
 H        -4.169590         2.375225         1.326884
 H        -2.537752         0.476133         0.723406
 H        -2.577222         1.431420        -0.982475
 H        -0.631651         2.750176        -0.065411
 H         0.860674         1.780618         1.439399
 H        -0.493800         0.665172         2.091876
 H         1.487609        -0.076693         0.129761
 H        -1.815591         3.135789         2.736560
