19
Iteration:  1427charge 0 multiplicity 1
 O        -3.750179         4.607413         1.555096
 C        -3.132901         3.480837         0.934354
 C        -2.524818         2.606436         1.969121
 C        -2.339460         1.216458         1.281131
 C        -1.303638         2.077215         0.292908
 C         0.111154         1.513710         0.408680
 C         0.155981         0.037669         0.215122
 O        -0.120914        -0.489312        -0.859550
 C        -1.652931         3.400733         0.988068
 H        -3.863543         5.308908         0.912984
 H        -3.638443         3.012709         0.072537
 H        -2.551611         2.849166         3.011185
 H        -1.725837         0.609270         1.864224
 H        -3.231688         0.727434         0.781004
 H        -1.628105         1.767170        -0.724835
 H         0.745688         1.908545        -0.428274
 H         0.472887         1.787853         1.470777
 H         0.243534        -0.577714         1.104018
 H        -0.987674         4.297029         0.945450
