19
Iteration:  1290
 O        -3.407266         4.790623         1.689686
 C        -3.208532         3.578608         0.997213
 C        -2.777454         2.448591         1.907503
 C        -2.595832         1.224173         1.087429
 C        -1.493290         1.914629         0.175746
 C        -0.019845         1.563998         0.487424
 C         0.571346         0.322766        -0.146148
 O        -0.003007        -0.737730        -0.493095
 C        -1.789881         3.277527         0.991555
 H        -3.474008         5.456346         0.941729
 H        -3.883317         3.431657         0.072524
 H        -2.795673         2.592373         3.009856
 H        -2.211710         0.276839         1.634251
 H        -3.414876         0.921402         0.520616
 H        -1.546071         1.816633        -0.938755
 H         0.742919         2.451540         0.439189
 H        -0.083035         1.347237         1.554109
 H         1.735232         0.308249        -0.241176
 H        -1.079095         4.156118         1.078000
