19
Iteration:  2325
 O        -3.660475         4.349087         0.464530
 C        -3.217490         2.963235         0.797687
 C        -2.322436         3.045198         2.014907
 C        -2.065898         1.646116         2.599297
 C        -1.547005         1.227555         1.134057
 C        -0.089144         0.831236         1.036428
 C         0.330217         0.627971        -0.383533
 O        -0.315652         0.922540        -1.363921
 C        -1.719411         2.702574         0.744200
 H        -3.774862         4.413538        -0.495562
 H        -3.996563         2.218192         0.572262
 H        -2.360637         3.995016         2.455383
 H        -1.176279         1.549936         3.334825
 H        -2.821866         1.017626         3.118493
 H        -2.128048         0.385193         0.643037
 H         0.554308         1.555922         1.476203
 H         0.243026        -0.050439         1.520060
 H         1.452091         0.391495        -0.441759
 H        -1.149400         3.265451         0.054790
