19
Iteration:   396charge 0 multiplicity 1
 O        -3.451483         4.816087         1.566283
 C        -2.790219         3.839145         0.833693
 C        -3.126556         2.377372         1.248895
 C        -2.348328         1.349898         0.263880
 C        -1.045880         2.134226         0.627630
 C        -0.170198         1.050479         1.157190
 C         0.291197         0.046958         0.221295
 O        -0.251701        -0.292266        -0.831433
 C        -1.809545         3.065027         1.576760
 H        -2.725250         5.230065         2.078556
 H        -2.547771         4.150380        -0.156651
 H        -3.771528         2.196911         2.074739
 H        -2.392127         0.248562         0.638331
 H        -2.716712         1.373334        -0.820141
 H        -0.586668         2.640276        -0.246356
 H         0.752428         1.475508         1.715206
 H        -0.822209         0.575450         2.019433
 H         1.293984        -0.494810         0.457342
 H        -1.585457         3.454523         2.531808
