19
Iteration:  2004
 O        -3.695429         4.723288         0.988727
 C        -3.393358         3.375387         1.034291
 C        -2.530771         3.061264         2.244720
 C        -2.204820         1.512846         2.280293
 C        -1.682434         1.446531         0.797142
 C        -0.169423         0.922451         0.684851
 C        -0.052394         0.182838        -0.615300
 O         0.979942         0.100713        -1.237327
 C        -1.938500         2.997944         0.752650
 H        -3.470162         4.995010         0.051403
 H        -4.305452         2.753430         0.682321
 H        -2.579882         3.719655         3.077780
 H        -1.382598         1.263764         3.058666
 H        -3.072338         0.919305         2.429755
 H        -2.398626         1.021829         0.093409
 H         0.431195         1.912909         0.759240
 H         0.038941         0.247239         1.612908
 H        -0.961874        -0.242687        -1.013355
 H        -1.494127         3.830500         0.263977
