19
Iteration:  3378charge 0 multiplicity 1
 O        -3.407633         4.909893         1.151939
 C        -3.034409         3.561169         0.948666
 C        -2.801890         2.813941         2.215672
 C        -2.418753         1.244786         1.830058
 C        -1.553774         1.642382         0.674843
 C        -0.187093         1.045510         0.772328
 C         0.458261         0.283749        -0.453349
 O        -0.104622        -0.234130        -1.425961
 C        -1.631433         3.108049         1.231705
 H        -3.057945         5.460318         0.452371
 H        -3.663127         3.081622         0.089011
 H        -3.291639         3.210002         3.178870
 H        -1.836861         0.777559         2.610818
 H        -3.376360         0.533693         1.583376
 H        -2.054328         1.616765        -0.310346
 H         0.629939         1.678803         1.141977
 H        -0.251467         0.186071         1.344768
 H         1.564873         0.046922        -0.365765
 H        -0.774556         3.795145         1.202710
