19
Iteration:  2660
 O        -3.627890         4.376259         0.485708
 C        -3.234742         3.123073         0.961992
 C        -2.220589         3.046868         2.096047
 C        -2.105419         1.550335         2.506573
 C        -1.619631         1.258864         1.054031
 C        -0.117190         0.831231         1.022919
 C         0.399764         0.931495        -0.417656
 O        -0.268582         0.492559        -1.343658
 C        -1.808409         2.746467         0.672002
 H        -3.903972         4.283432        -0.435896
 H        -3.878238         2.322212         0.844338
 H        -2.023871         4.034600         2.641943
 H        -1.194868         1.473801         2.974386
 H        -3.116545         1.021760         2.973668
 H        -2.142665         0.570799         0.430073
 H         0.404035         1.587074         1.787384
 H         0.174069        -0.172842         1.486807
 H         1.436184         1.247973        -0.588568
 H        -1.282458         3.470943         0.027461
