19
Iteration:  4281
 O        -3.638655         4.562522         2.127874
 C        -2.605877         4.042153         1.256526
 C        -3.031151         2.684364         0.725867
 C        -2.124806         2.117069        -0.429912
 C        -0.821693         2.332376         0.572790
 C        -0.076166         1.012605         0.935276
 C        -0.017636         0.028433        -0.233559
 O        -0.405086        -1.135913        -0.102504
 C        -1.860436         2.858939         1.647497
 H        -3.235307         5.170823         2.815902
 H        -2.236963         4.878406         0.592709
 H        -4.042018         2.307723         1.055910
 H        -2.354839         1.059054        -0.579668
 H        -2.185716         2.434210        -1.483198
 H        -0.205348         3.102073         0.236068
 H         0.982461         1.376373         1.070371
 H        -0.447916         0.590704         1.869673
 H         0.356999         0.426616        -1.188428
 H        -1.829316         2.468453         2.754235
