19
Iteration:  3236charge 0 multiplicity 1
 O        -3.133378         4.821405         0.833849
 C        -3.105462         3.426873         0.971336
 C        -2.337367         2.916198         2.150427
 C        -2.490311         1.457279         2.340863
 C        -1.919823         1.149694         1.017021
 C        -0.446793         0.458795         0.922399
 C         0.405060         0.500058        -0.380054
 O         0.100734         0.869485        -1.499597
 C        -1.855889         2.659723         0.585927
 H        -2.712552         4.981749         0.011548
 H        -4.081656         2.983817         0.642029
 H        -1.975402         3.578942         2.871949
 H        -1.878003         1.027254         3.030391
 H        -3.491369         1.110210         2.490787
 H        -2.515335         0.629615         0.321823
 H         0.155917         0.877549         1.813939
 H        -0.784166        -0.639237         1.232261
 H         1.471311         0.051398        -0.306027
 H        -0.984137         3.148785         0.413701
