19
Iteration:  3908charge 0 multiplicity 1
 O        -2.986279         5.038819         1.542999
 C        -2.615293         3.905389         0.900111
 C        -3.264114         2.708339         1.470843
 C        -3.206789         1.426583         0.681284
 C        -1.552931         1.698213         0.588855
 C        -0.447393         0.681535         0.942898
 C        -0.051353        -0.092811        -0.211318
 O         1.049943         0.072767        -0.810094
 C        -1.783702         2.818801         1.617575
 H        -2.243008         5.630379         1.741312
 H        -2.473700         3.833824        -0.226964
 H        -3.966165         3.051194         2.265785
 H        -3.614822         0.598681         1.426761
 H        -3.694171         1.397290        -0.376932
 H        -1.543631         2.030403        -0.405853
 H         0.456582         1.182201         1.407746
 H        -1.003975         0.023585         1.656940
 H        -0.924260        -0.698297        -0.497176
 H        -1.236714         3.015648         2.605743
