19
Iteration:  2696charge 0 multiplicity 1
 O        -3.718356         4.462933         0.681814
 C        -3.317060         3.130218         0.918402
 C        -2.426634         3.098442         2.110759
 C        -2.159057         1.662546         2.584365
 C        -1.539834         1.346781         1.112138
 C        -0.141920         0.797987         0.973433
 C         0.490534         0.830919        -0.573808
 O         0.016560         0.223006        -1.508690
 C        -1.847367         2.832350         0.707169
 H        -3.684433         4.686134        -0.240497
 H        -4.129995         2.370167         0.623216
 H        -2.271968         3.954989         2.633992
 H        -1.285666         1.543015         3.398106
 H        -2.980699         1.304657         3.223033
 H        -2.244245         0.611014         0.653924
 H         0.577674         1.391121         1.437347
 H        -0.031359        -0.342291         1.241759
 H         1.477512         1.301562        -0.609060
 H        -1.243585         3.409088         0.042570
