19
Iteration:  4311
 O        -3.507415         4.539529         2.209567
 C        -2.560835         3.987862         1.301635
 C        -3.128314         2.757849         0.626633
 C        -2.240114         2.278042        -0.533990
 C        -0.890888         2.293234         0.409059
 C        -0.213686         1.021078         0.897114
 C         0.039129         0.007272        -0.151369
 O        -0.243598        -1.147977         0.066751
 C        -1.874392         2.752656         1.626157
 H        -3.096792         4.774750         3.039843
 H        -2.131989         4.719222         0.619033
 H        -4.192614         2.662029         0.892478
 H        -2.655176         1.171795        -0.818282
 H        -2.183572         2.854156        -1.485557
 H        -0.285283         3.223011         0.086907
 H         0.769853         1.490152         1.158964
 H        -0.813368         0.514071         1.728535
 H         0.476769         0.376531        -1.145694
 H        -1.784155         2.322371         2.649789
