19
Iteration:  4808charge 0 multiplicity 1
 O        -3.228424         4.885144         1.817061
 C        -2.310186         3.979729         1.285170
 C        -2.853130         2.983092         0.397236
 C        -1.669414         2.261794        -0.309326
 C        -1.156900         1.791771         1.093063
 C        -1.104033         0.276658         1.254970
 C        -0.085719        -0.245820         0.254076
 O        -0.039596        -0.048954        -0.926368
 C        -2.290705         2.440742         1.770323
 H        -2.859981         5.168606         2.666658
 H        -1.314377         4.361725         0.863237
 H        -3.916925         3.129990         0.265949
 H        -1.989275         1.493066        -0.964168
 H        -0.973523         3.025524        -0.822795
 H        -0.201398         2.180830         1.255040
 H        -0.983930        -0.074741         2.291698
 H        -1.991132        -0.187678         0.874383
 H         0.666134        -0.998343         0.818458
 H        -2.837211         2.263085         2.760582
