19
Iteration:  4798
 O        -3.233583         4.883608         1.841486
 C        -2.239834         4.050810         1.249957
 C        -2.830896         2.973708         0.440777
 C        -1.747737         2.200277        -0.360407
 C        -1.204481         1.736008         1.022471
 C        -1.200264         0.229219         1.155782
 C        -0.016491        -0.257428         0.316031
 O        -0.004952         0.002057        -0.892240
 C        -2.270338         2.515168         1.860442
 H        -2.930924         5.254822         2.657630
 H        -1.260878         4.524894         1.078623
 H        -3.850679         2.945046         0.053441
 H        -2.057108         1.395849        -0.972033
 H        -1.077038         2.860603        -1.002921
 H        -0.265960         2.083760         1.295692
 H        -0.956591         0.014446         2.222611
 H        -2.121408        -0.233380         0.923364
 H         0.900720        -0.902598         0.749420
 H        -2.773697         2.112334         2.794226
