19
Iteration:  1771
 O        -3.236058         4.526637         0.422745
 C        -3.148265         3.168001         0.831730
 C        -2.217807         3.007789         2.106463
 C        -2.221720         1.595729         2.560768
 C        -1.840156         1.134970         1.061723
 C        -0.558872         0.359826         0.970755
 C         0.313734         0.654297        -0.296908
 O        -0.113188         1.203574        -1.318694
 C        -1.698989         2.628035         0.753738
 H        -3.035104         4.465517        -0.509697
 H        -4.076434         2.634167         0.560775
 H        -2.090750         3.934757         2.643814
 H        -1.346981         1.167623         3.123330
 H        -3.135296         1.162813         2.872188
 H        -2.600036         0.745655         0.418818
 H         0.070398         0.607341         1.796986
 H        -0.492783        -0.706971         0.963666
 H         1.438996         0.316754        -0.229074
 H        -1.012233         3.036271         0.003363
