19
Iteration:  4116
 O        -3.177714         4.804906         1.926296
 C        -2.589537         3.933095         0.980872
 C        -3.245305         2.570555         1.126207
 C        -2.784104         1.708133         0.024880
 C        -1.165540         2.063721         0.438436
 C        -0.327144         0.949208         1.084619
 C         0.404406        -0.094880         0.214674
 O        -0.016172        -0.420590        -0.830786
 C        -1.852697         2.848039         1.638020
 H        -2.450102         5.399716         2.189071
 H        -2.244485         4.385695        -0.036438
 H        -4.090897         2.377331         1.758563
 H        -3.041227         0.565379         0.154490
 H        -3.303846         1.902991        -0.866418
 H        -0.475941         2.703097        -0.315465
 H         0.335581         1.434371         1.826300
 H        -1.094077         0.389634         1.619573
 H         1.332342        -0.521185         0.666495
 H        -1.475257         3.060042         2.595443
