19
Iteration:  4220
 O        -3.635043         4.692190         1.867830
 C        -2.688696         3.903095         1.166715
 C        -3.007807         2.462595         0.972506
 C        -2.117342         1.985345        -0.188719
 C        -0.805135         2.228356         0.617916
 C        -0.124623         0.991809         1.137294
 C         0.025154         0.204307        -0.204061
 O        -0.562817        -0.882984        -0.403378
 C        -1.674923         2.818367         1.671465
 H        -3.026564         5.388938         2.276355
 H        -2.268975         4.421707         0.296045
 H        -3.845326         1.797293         1.314538
 H        -2.379927         0.926191        -0.282766
 H        -2.181888         2.628803        -1.108479
 H         0.011047         2.826927         0.006548
 H         0.881098         1.190842         1.582960
 H        -0.786914         0.614189         1.964224
 H         0.457988         0.754170        -1.040344
 H        -1.332709         2.936590         2.713192
