19
Iteration:   471
 O        -3.351558         4.886033         1.736493
 C        -2.847167         3.844960         0.923216
 C        -3.221271         2.386719         1.331214
 C        -2.676041         1.375030         0.380728
 C        -1.254465         2.137476         0.386156
 C        -0.283267         1.034899         1.016640
 C         0.211789        -0.194877         0.349231
 O         0.381386        -0.233173        -0.869001
 C        -1.701454         3.135076         1.447377
 H        -3.174170         5.687376         1.202015
 H        -2.863528         4.135770        -0.173462
 H        -3.810819         2.108363         2.182193
 H        -2.615155         0.348864         0.883833
 H        -3.118592         1.385435        -0.640432
 H        -0.913386         2.467734        -0.669446
 H         0.572233         1.533914         1.556204
 H        -0.781269         0.642670         1.841744
 H         0.228167        -1.175108         0.897151
 H        -1.056817         3.380726         2.236396
