19
Iteration:  2767charge 0 multiplicity 1
 O        -3.872607         4.526052         0.889229
 C        -3.313484         3.228919         1.053145
 C        -2.357513         3.062752         2.160316
 C        -2.184318         1.585235         2.283475
 C        -1.570781         1.475368         0.840110
 C        -0.136822         0.938675         0.855187
 C         0.386156         0.855786        -0.611935
 O         0.272874        -0.202665        -1.216397
 C        -1.794627         2.977364         0.709909
 H        -4.137474         4.791476         0.020314
 H        -3.987294         2.333023         0.853394
 H        -2.159331         3.823736         2.971335
 H        -1.592860         1.137842         3.138953
 H        -3.094101         0.998857         2.334222
 H        -2.237451         0.916555         0.104035
 H         0.543731         1.663094         1.421011
 H         0.005520        -0.044509         1.203132
 H         0.978685         1.685066        -1.052503
 H        -1.398155         3.616619        -0.060001
