19
Iteration:  1788charge 0 multiplicity 1
 O        -3.242159         4.439061         0.379997
 C        -2.975767         3.152899         0.797107
 C        -2.229637         3.017586         2.065647
 C        -2.214896         1.543622         2.592246
 C        -1.837262         1.124893         1.139605
 C        -0.589362         0.361970         0.912055
 C         0.189028         0.681684        -0.283077
 O        -0.124037         1.345470        -1.275013
 C        -1.693032         2.583114         0.655632
 H        -2.803179         4.598504        -0.451996
 H        -3.746282         2.390051         0.736087
 H        -1.930145         3.928933         2.672386
 H        -1.525588         1.548923         3.376802
 H        -3.214569         1.161157         3.045275
 H        -2.753153         0.552056         0.753031
 H         0.242738         0.621525         1.691950
 H        -0.929563        -0.697164         1.089032
 H         1.218403         0.319276        -0.101153
 H        -0.821843         3.066014         0.117450
