19
Iteration:  3300
 O        -3.162497         4.860759         1.029605
 C        -3.068454         3.405197         0.918986
 C        -2.437204         2.793557         2.160331
 C        -2.533443         1.268322         1.982523
 C        -1.705237         1.350176         0.722408
 C        -0.307483         0.839107         0.983093
 C         0.460074         0.608612        -0.361066
 O        -0.205322         0.263669        -1.364574
 C        -1.706347         2.891338         0.874100
 H        -3.388503         5.317530         0.183639
 H        -3.940333         2.941363         0.318282
 H        -2.339721         3.310077         3.074557
 H        -2.086353         0.730358         2.769418
 H        -3.684497         1.092888         1.868029
 H        -2.166264         0.887402        -0.179955
 H         0.345388         1.514328         1.548601
 H        -0.266918        -0.080354         1.465146
 H         1.606657         0.622828        -0.309540
 H        -0.946414         3.402398         0.436685
