19
Iteration:  1278charge 0 multiplicity 1
 O        -3.434647         4.831654         1.643372
 C        -3.250902         3.569017         1.032923
 C        -2.807671         2.496318         1.945750
 C        -2.498997         1.188418         1.018545
 C        -1.438469         1.990928         0.261302
 C        -0.009644         1.493320         0.574292
 C         0.550002         0.307930        -0.218681
 O        -0.029262        -0.700356        -0.471720
 C        -1.793261         3.199011         0.897189
 H        -3.314146         5.582057         1.058322
 H        -4.044928         3.237855         0.273453
 H        -2.921685         2.481216         3.019008
 H        -2.102814         0.315626         1.631722
 H        -3.324760         0.853924         0.458248
 H        -1.755086         2.077037        -0.792303
 H         0.737243         2.349853         0.461981
 H         0.157528         1.153147         1.587990
 H         1.683366         0.429030        -0.480440
 H        -1.042077         4.051133         1.121945
