19
Iteration:  4724
 O        -2.847486         5.000615         2.090223
 C        -2.356036         3.957486         1.266799
 C        -3.144657         3.037780         0.468764
 C        -2.243004         2.314942        -0.483521
 C        -1.417325         1.749759         0.759782
 C        -1.117869         0.340796         1.053052
 C         0.129930        -0.360636         0.479024
 O         0.501157        -0.154240        -0.697721
 C        -2.404910         2.449130         1.595470
 H        -2.443789         5.011021         2.985827
 H        -1.426988         4.174301         0.802740
 H        -4.149657         3.343894         0.223685
 H        -2.882177         1.567613        -0.905267
 H        -1.821392         2.864947        -1.293049
 H        -0.426274         2.386469         0.812555
 H        -1.068755         0.284487         2.185493
 H        -1.877234        -0.400334         0.744978
 H         0.730371        -1.108754         1.167140
 H        -2.751609         2.061374         2.542369
