19
Iteration:  2172charge 0 multiplicity 1
 O        -3.630224         4.666805         0.836197
 C        -3.364035         3.230643         1.069808
 C        -2.358200         2.980401         2.100731
 C        -2.209984         1.438990         2.349278
 C        -1.630840         1.311662         0.905769
 C        -0.081618         1.178863         0.858412
 C         0.376021         0.904058        -0.582889
 O         0.286953        -0.136359        -1.201217
 C        -2.052940         2.784899         0.616102
 H        -3.651474         4.593380        -0.171057
 H        -4.378610         2.649874         1.160958
 H        -1.975952         3.598915         2.905172
 H        -1.439196         1.322434         3.041654
 H        -3.145128         0.939105         2.556080
 H        -2.081781         0.480586         0.242115
 H         0.384781         2.089624         1.297292
 H         0.144693         0.118723         1.356582
 H         0.813448         1.824643        -0.981558
 H        -1.647366         3.528025        -0.194317
