19
Iteration:    29charge 0 multiplicity 1
 O        -3.470358         4.931564         1.686172
 C        -2.757106         3.943845         0.983678
 C        -3.156161         2.456123         1.060336
 C        -2.255680         1.845043        -0.062029
 C        -0.978329         2.160105         0.819421
 C        -0.212029         0.853109         1.253123
 C         0.217243         0.169748        -0.121418
 O        -0.033537        -0.920867        -0.611642
 C        -1.959047         2.959826         1.762235
 H        -4.403016         4.755948         1.512823
 H        -2.373278         4.265588        -0.005332
 H        -4.259530         2.207326         1.153468
 H        -2.372467         0.757822        -0.204271
 H        -2.344084         2.594543        -0.913060
 H        -0.237361         2.810287         0.310985
 H         0.628717         1.028196         1.999098
 H        -0.923810         0.217146         1.845370
 H         0.920487         0.860822        -0.782625
 H        -1.689927         3.245246         2.772247
