19
Iteration:  3366charge 0 multiplicity 1
 O        -3.384308         4.873540         1.145856
 C        -3.041085         3.551413         0.949843
 C        -2.799157         2.697867         2.177908
 C        -2.522893         1.362507         1.906233
 C        -1.579693         1.687714         0.692872
 C        -0.164386         0.933114         0.749963
 C         0.453365         0.329673        -0.476394
 O        -0.106819        -0.183858        -1.400307
 C        -1.612247         3.127701         1.134994
 H        -2.817804         5.378196         0.542501
 H        -3.538884         3.048305         0.005708
 H        -2.811038         3.039526         3.247945
 H        -1.820998         1.080668         2.664966
 H        -3.308196         0.416508         1.791743
 H        -1.993132         1.479007        -0.366814
 H         0.442449         1.613721         1.351787
 H        -0.183356         0.145281         1.451743
 H         1.575559         0.261621        -0.297221
 H        -0.835542         3.817467         1.231726
