19
Iteration:    57
 O        -3.562172         4.872666         1.589246
 C        -2.713309         3.927715         1.084454
 C        -3.070620         2.529519         0.974897
 C        -2.218282         1.700005         0.044597
 C        -0.986018         2.085486         0.855977
 C        -0.286146         0.828950         1.146577
 C         0.178126         0.342856        -0.178258
 O        -0.119541        -0.771204        -0.547327
 C        -1.880695         2.940966         1.800322
 H        -3.522157         5.582570         0.901295
 H        -2.197209         4.186265         0.145840
 H        -3.930351         2.059201         1.381105
 H        -2.430335         0.647110         0.414751
 H        -2.290113         1.815109        -0.993929
 H        -0.210942         2.646678         0.307893
 H         0.648627         1.001944         1.690259
 H        -0.927522         0.138885         1.687405
 H         0.998415         0.884539        -0.630310
 H        -1.849689         2.724801         2.906185
