19
Iteration:   524
 O        -3.395089         4.891210         1.677458
 C        -2.876799         3.881028         0.823682
 C        -3.177536         2.594385         1.603096
 C        -2.955653         1.540256         0.422345
 C        -1.381331         1.933041         0.416443
 C        -0.262593         0.928740         1.061388
 C         0.216053        -0.306076         0.219636
 O         0.750094        -0.216975        -0.887248
 C        -1.747439         3.072643         1.381964
 H        -2.694694         5.461618         2.081403
 H        -3.084250         4.048657        -0.309110
 H        -3.908568         2.725255         2.384866
 H        -3.215829         0.516685         0.634086
 H        -3.185112         1.818777        -0.559902
 H        -0.985948         2.060095        -0.658964
 H         0.663009         1.506743         1.032934
 H        -0.430929         0.640686         2.107182
 H         0.149386        -1.288019         0.720283
 H        -1.075676         3.582792         1.990139
