19
Iteration:  2954charge 0 multiplicity 1
 O        -3.765170         4.813714         1.106469
 C        -3.397258         3.432578         1.131830
 C        -2.372097         3.082453         2.175495
 C        -2.182686         1.612138         2.259897
 C        -1.838156         1.423630         0.826722
 C        -0.466795         0.736353         0.519624
 C         0.017284         0.233251        -0.821674
 O         1.211758         0.095724        -1.015493
 C        -1.959419         2.932896         0.702689
 H        -3.966719         5.089339         0.220349
 H        -4.119217         2.642348         0.748124
 H        -2.041340         3.976012         2.736263
 H        -1.401113         1.233641         2.962309
 H        -3.027850         1.040046         2.547852
 H        -2.641256         1.000885         0.192713
 H         0.382023         1.222522         0.966090
 H        -0.470303        -0.303153         1.289167
 H        -0.686007         0.163347        -1.704290
 H        -1.085762         3.547468         0.243847
