19
Iteration:   613charge 0 multiplicity 1
 O        -3.254966         5.040577         1.540403
 C        -2.831948         3.815773         0.774519
 C        -3.181359         2.521858         1.568936
 C        -2.996085         1.400512         0.636012
 C        -1.364819         1.743940         0.599788
 C        -0.312226         0.838721         1.112601
 C         0.018861        -0.061683        -0.054641
 O         0.920009        -0.026495        -0.841599
 C        -1.766429         2.984698         1.475988
 H        -2.869863         5.764703         0.973979
 H        -2.925872         3.753263        -0.382586
 H        -4.075402         2.618524         2.240057
 H        -3.207263         0.369663         1.053806
 H        -3.388099         1.517364        -0.327415
 H        -1.214770         2.110057        -0.411215
 H         0.486330         1.499853         1.538868
 H        -0.620421         0.173035         1.916270
 H        -0.824483        -0.800468        -0.217304
 H        -1.086497         3.441598         2.289072
