19
Iteration:  4177charge 0 multiplicity 1
 O        -3.461549         4.689649         1.946491
 C        -2.661984         3.962528         1.026875
 C        -3.149843         2.584903         1.003173
 C        -2.291107         1.789787        -0.049820
 C        -0.946114         2.202600         0.587551
 C        -0.194299         0.950953         1.052838
 C         0.304491         0.029569        -0.032022
 O        -0.470041        -0.724113        -0.628960
 C        -1.743952         2.951537         1.662491
 H        -2.961088         5.373620         2.467885
 H        -2.565783         4.454210         0.072026
 H        -4.108214         2.257221         1.504244
 H        -2.433448         0.706829         0.099373
 H        -2.467315         2.140801        -1.120875
 H        -0.251868         2.845099         0.027279
 H         0.409693         1.320035         1.918773
 H        -0.842221         0.243191         1.648911
 H         1.425653        -0.032098        -0.209464
 H        -1.455223         3.148996         2.717174
