19
Iteration:  2590
 O        -3.498688         4.333547         0.449307
 C        -3.277395         2.998459         0.822849
 C        -2.363383         3.077802         2.044604
 C        -2.016244         1.628948         2.655475
 C        -1.572576         1.145059         1.251002
 C        -0.087843         0.857950         1.049340
 C         0.314139         0.619341        -0.430215
 O        -0.295721         1.062723        -1.393743
 C        -1.897640         2.543468         0.589909
 H        -3.491670         4.365632        -0.509308
 H        -4.089810         2.286313         0.721816
 H        -1.996070         3.963477         2.418349
 H        -1.191314         1.875711         3.354790
 H        -2.840470         0.992288         3.054626
 H        -2.288045         0.340863         1.071922
 H         0.597263         1.763555         1.272222
 H         0.444767         0.134948         1.635546
 H         1.195017        -0.006330        -0.613946
 H        -1.167723         3.106740         0.071036
