19
Iteration:  1527
 O        -3.524768         4.799676         1.124165
 C        -3.106618         3.447315         0.900103
 C        -2.730988         2.680580         2.077977
 C        -2.354816         1.175202         1.714709
 C        -1.480844         1.675211         0.602141
 C         0.052214         1.349550         0.721948
 C         0.471912         0.440000        -0.380648
 O        -0.265549        -0.368858        -0.928360
 C        -1.685053         3.111040         1.054766
 H        -3.418270         5.345788         0.315651
 H        -3.669812         2.948550         0.112118
 H        -2.944642         3.094252         3.097294
 H        -1.945195         0.646754         2.503483
 H        -3.167912         0.568470         1.268570
 H        -1.857066         1.626101        -0.444275
 H         0.491471         2.366877         0.758724
 H         0.200615         1.027107         1.797074
 H         1.577248         0.597160        -0.644081
 H        -0.954813         3.917223         1.008215
