19
Iteration:  3635charge 0 multiplicity 1
 O        -3.337276         4.671575         2.029313
 C        -3.093263         3.666634         1.044158
 C        -2.755566         2.395296         1.688514
 C        -2.501954         1.356544         0.556884
 C        -1.327510         2.154635         0.045755
 C         0.002722         1.470738         0.430566
 C         0.195908         0.279713        -0.346783
 O        -0.224143        -0.783299         0.024544
 C        -1.600109         3.184910         1.057885
 H        -3.052903         5.537540         1.637329
 H        -3.717113         3.694651         0.171825
 H        -3.413514         2.255889         2.584968
 H        -2.210084         0.540524         1.227470
 H        -3.280620         1.062971        -0.114586
 H        -1.433079         2.468273        -0.945192
 H         0.803272         2.223982         0.312206
 H        -0.097138         1.293694         1.472650
 H         0.844632         0.460090        -1.249257
 H        -0.838879         3.710637         1.564258
