19
Iteration:  1763
 O        -3.244156         4.570119         0.448453
 C        -3.120136         3.240482         0.894245
 C        -2.270575         3.066209         2.106429
 C        -2.276631         1.528009         2.494331
 C        -1.818695         1.122818         1.017177
 C        -0.446310         0.345408         0.989229
 C         0.372509         0.672172        -0.303428
 O        -0.107352         1.125481        -1.337012
 C        -1.785798         2.655678         0.731980
 H        -3.173773         4.500248        -0.508948
 H        -3.899891         2.439208         0.702993
 H        -2.019008         3.977037         2.591091
 H        -1.362049         1.425125         3.217129
 H        -3.102013         1.004276         3.054210
 H        -2.665659         0.499703         0.411758
 H         0.208434         0.580207         1.836809
 H        -0.798245        -0.733369         1.056373
 H         1.361411         0.101196        -0.258866
 H        -1.108577         3.141044         0.119098
