19
Iteration:   815
 O        -3.332440         4.859663         1.842222
 C        -3.086411         3.823878         0.915494
 C        -3.033967         2.511224         1.679493
 C        -2.811318         1.368472         0.594555
 C        -1.494791         2.119810         0.204467
 C        -0.406901         1.190818         0.733592
 C        -0.032673        -0.101124        -0.241586
 O         1.099645        -0.598964        -0.285461
 C        -1.747038         3.246708         1.156464
 H        -2.627623         5.559419         1.914988
 H        -3.666055         3.854608        -0.046801
 H        -3.471394         2.395919         2.709770
 H        -2.643423         0.407222         1.015437
 H        -3.793281         1.303533         0.009507
 H        -1.298451         2.349958        -0.842790
 H         0.589607         1.671653         0.747845
 H        -0.661473         0.720046         1.697428
 H        -0.822011        -0.593014        -0.855472
 H        -0.819796         3.822224         1.463780
