19
Iteration:  4630
 O        -3.095643         4.866878         2.082031
 C        -2.302629         4.098643         1.195321
 C        -3.123330         2.997024         0.687861
 C        -2.440797         2.167495        -0.392348
 C        -1.245519         1.795207         0.573376
 C        -1.294368         0.276554         0.903428
 C        -0.304533        -0.491219         0.102300
 O         0.811158        -0.015772        -0.223860
 C        -1.791223         2.675909         1.588505
 H        -2.530917         5.242327         2.744274
 H        -1.645122         4.790489         0.599710
 H        -4.151479         2.833642         1.057263
 H        -3.013157         1.292986        -0.879868
 H        -2.052205         2.840366        -1.210361
 H        -0.293474         2.034046         0.202491
 H        -1.058316         0.053966         1.944481
 H        -2.236981        -0.253050         0.685803
 H        -0.685237        -1.566317        -0.124679
 H        -2.045624         2.479713         2.586380
