19
Iteration:  2167charge 0 multiplicity 1
 O        -3.643246         4.661419         0.846482
 C        -3.404741         3.260477         1.063528
 C        -2.317039         2.993827         2.136954
 C        -2.204391         1.454154         2.336250
 C        -1.661868         1.296496         0.855044
 C        -0.134409         1.179541         0.838266
 C         0.412438         0.904855        -0.598700
 O         0.326326        -0.174970        -1.186842
 C        -2.032801         2.764930         0.646782
 H        -3.735735         4.885512        -0.084217
 H        -4.298450         2.731263         1.051041
 H        -1.966347         3.720526         2.925113
 H        -1.288759         1.102392         3.047825
 H        -3.166748         0.908376         2.506519
 H        -2.121464         0.435053         0.359909
 H         0.286590         2.100807         1.244143
 H         0.099175         0.380015         1.433033
 H         0.839873         1.900911        -1.048566
 H        -1.790198         3.383747        -0.147539
