19
Iteration:  3968
 O        -2.858644         5.061442         1.464692
 C        -2.645061         3.839827         0.868720
 C        -3.367531         2.608323         1.441293
 C        -2.992175         1.471991         0.609983
 C        -1.439713         1.695417         0.715176
 C        -0.527649         0.565541         1.188608
 C        -0.041857        -0.098755        -0.151803
 O         0.837834         0.257726        -0.983152
 C        -1.887501         2.855852         1.652081
 H        -2.112318         5.618666         1.601975
 H        -2.490699         3.970833        -0.173184
 H        -4.231187         2.674546         2.071075
 H        -3.301182         0.579409         1.116821
 H        -3.460405         1.326363        -0.357486
 H        -1.048628         2.052935        -0.236840
 H         0.368144         0.988689         1.724635
 H        -1.061005        -0.105840         1.905732
 H        -0.550939        -1.005496        -0.543621
 H        -1.254130         3.146569         2.500555
