19
Iteration:   122
 O        -3.233602         5.002903         1.794359
 C        -2.739876         3.986502         0.984877
 C        -3.275631         2.421292         0.901533
 C        -2.456991         1.474879        -0.043949
 C        -1.129546         2.046254         0.564390
 C        -0.112867         1.027099         1.238616
 C         0.513543         0.184992         0.050824
 O        -0.179233        -0.631417        -0.510983
 C        -2.009017         2.848314         1.626639
 H        -4.016708         4.725862         2.334470
 H        -2.415981         4.510307         0.095461
 H        -4.253360         2.158712         1.336395
 H        -2.759759         0.505022         0.314602
 H        -2.466353         1.586687        -1.061558
 H        -0.707244         2.834249        -0.108514
 H         0.494872         1.478325         1.951544
 H        -0.743281         0.324812         1.749793
 H         1.416257         0.577410        -0.503488
 H        -1.746002         3.062743         2.702672
