19
Iteration:  3256charge 0 multiplicity 1
 O        -3.090983         4.868276         0.898904
 C        -3.153405         3.430179         0.937498
 C        -2.369410         2.925398         2.123826
 C        -2.535155         1.358591         2.327936
 C        -1.794955         1.132775         0.801051
 C        -0.431118         0.598128         0.918706
 C         0.414228         0.536407        -0.328996
 O         0.018123         0.667415        -1.472388
 C        -1.799402         2.711724         0.781206
 H        -2.914848         5.197295        -0.028742
 H        -4.188937         2.984736         0.608604
 H        -2.029469         3.533442         2.917958
 H        -1.943257         1.024312         3.108827
 H        -3.631472         0.995563         2.291777
 H        -2.450092         0.597433         0.086716
 H         0.188660         1.259442         1.600579
 H        -0.361148        -0.509394         1.182084
 H         1.472187         0.388229        -0.260732
 H        -1.268261         3.258040         0.107171
