19
Iteration:  3281
 O        -3.073000         4.798468         0.949391
 C        -3.038288         3.406769         1.021587
 C        -2.484684         2.822545         2.183008
 C        -2.563575         1.269601         2.128174
 C        -1.769257         1.346545         0.737947
 C        -0.384781         0.801620         0.979962
 C         0.378610         0.595913        -0.293913
 O        -0.100314         0.434246        -1.421925
 C        -1.720895         2.840451         0.659917
 H        -3.335846         4.990104         0.053690
 H        -3.952926         2.893714         0.691988
 H        -2.284188         3.479715         3.046838
 H        -1.924818         0.822391         2.871160
 H        -3.500720         0.812694         2.111600
 H        -2.272099         0.793111        -0.006313
 H         0.329691         1.471160         1.597454
 H        -0.315022        -0.362444         1.262527
 H         1.465586         0.568899        -0.312434
 H        -0.770667         3.418858         0.417703
