19
Iteration:  3554
 O        -3.554500         4.783721         1.842517
 C        -3.086499         3.697027         0.976884
 C        -2.722659         2.465111         1.789967
 C        -2.451683         1.273097         0.886813
 C        -1.260278         2.084179         0.244633
 C         0.036804         1.470822         0.363124
 C         0.341768         0.103311        -0.129204
 O        -0.342982        -0.760292        -0.583743
 C        -1.569187         3.264667         1.256729
 H        -3.294007         5.598898         1.425913
 H        -3.574953         3.608937        -0.027033
 H        -2.988918         2.485041         2.805951
 H        -2.164296         0.393343         1.484271
 H        -3.320801         0.913737         0.277465
 H        -1.622348         2.361196        -0.817761
 H         0.777194         2.177520        -0.099816
 H         0.324597         1.392128         1.509674
 H         1.340722        -0.131415         0.184139
 H        -0.923741         4.093965         1.672438
