19
Iteration:  1254charge 0 multiplicity 1
 O        -3.578291         4.838001         1.600126
 C        -3.262574         3.577513         0.986821
 C        -2.755465         2.469349         1.864111
 C        -2.483010         1.180578         1.090683
 C        -1.339117         1.929953         0.233628
 C         0.160723         1.498166         0.662619
 C         0.511344         0.342957        -0.290950
 O        -0.142947        -0.696530        -0.482439
 C        -1.759730         3.246091         1.032116
 H        -3.079129         5.588878         1.172435
 H        -3.779938         3.307620         0.074517
 H        -2.680883         2.458972         2.920689
 H        -2.240901         0.412028         1.779337
 H        -3.410078         0.832157         0.528931
 H        -1.722673         1.774568        -0.765749
 H         0.914433         2.247576         0.708441
 H         0.125859         1.097013         1.685818
 H         1.372573         0.487108        -1.023816
 H        -1.168398         4.167465         1.309120
