19
Iteration:  1442
 O        -3.767438         4.661936         1.488751
 C        -3.222421         3.506609         0.964012
 C        -2.589786         2.617906         2.004319
 C        -2.159334         1.341574         1.345665
 C        -1.325233         1.999107         0.274830
 C         0.137354         1.532713         0.495017
 C         0.152236        -0.009552         0.152500
 O        -0.121940        -0.550218        -0.940952
 C        -1.686117         3.316190         0.967987
 H        -3.695453         5.400590         0.840243
 H        -3.833352         3.098008         0.192415
 H        -2.907677         2.781352         3.079806
 H        -1.658298         0.527938         2.043434
 H        -3.096130         0.933999         0.959001
 H        -1.500136         2.165151        -0.740809
 H         0.755743         2.092216        -0.169369
 H         0.514917         1.678647         1.569696
 H         0.709673        -0.661548         0.821639
 H        -1.084124         4.115059         1.388551
