19
Iteration:  2418charge 0 multiplicity 1
 O        -3.690949         4.349659         0.545207
 C        -3.334910         3.062147         1.100651
 C        -2.162084         3.117811         1.948981
 C        -2.062864         1.762234         2.657469
 C        -1.755314         1.142585         1.209999
 C        -0.244677         0.758163         0.970325
 C         0.363401         0.492160        -0.430112
 O         0.315357         1.065534        -1.519873
 C        -2.089626         2.552374         0.503694
 H        -3.849757         4.236255        -0.432940
 H        -4.201316         2.315864         1.358984
 H        -1.820307         4.041131         2.312042
 H        -1.218165         1.701029         3.235274
 H        -2.812160         1.339269         3.285091
 H        -2.610795         0.391180         1.065998
 H         0.278771         1.624224         1.307115
 H        -0.062512         0.001385         1.748827
 H         1.105862        -0.447867        -0.272625
 H        -1.696441         3.124376        -0.389232
