19
Iteration:  3011charge 0 multiplicity 1
 O        -3.401431         4.763735         0.863738
 C        -3.315523         3.348468         1.128414
 C        -2.271762         2.971351         2.099614
 C        -2.270494         1.496570         2.380063
 C        -1.910528         1.255747         0.871289
 C        -0.511184         0.689239         0.741091
 C        -0.121193         0.454728        -0.670654
 O         1.011110         0.508732        -1.081403
 C        -1.991178         2.782214         0.638631
 H        -3.555052         5.000837        -0.097613
 H        -4.278384         2.773824         0.997476
 H        -1.876257         3.802235         2.772226
 H        -1.517549         1.271272         3.053473
 H        -3.206568         1.029152         2.734582
 H        -2.492579         0.713361         0.157788
 H         0.196226         1.463400         1.156453
 H        -0.152478        -0.394123         1.169847
 H        -0.948841         0.173017        -1.415891
 H        -1.518243         3.438582        -0.120068
