19
Iteration:  4869
 O        -3.557247         4.720361         1.902809
 C        -2.375715         4.063321         1.409245
 C        -2.648088         3.158167         0.285997
 C        -1.454847         2.518295        -0.328729
 C        -0.984365         1.995036         1.112051
 C        -0.773397         0.410466         1.317848
 C        -0.274025        -0.604353         0.191437
 O        -0.248917        -0.367204        -0.964045
 C        -2.323461         2.549417         1.627010
 H        -3.288186         4.877537         2.803865
 H        -1.483237         4.716930         1.416581
 H        -3.660562         3.211471        -0.080754
 H        -1.700928         1.574553        -0.896137
 H        -0.807772         3.249138        -0.810058
 H        -0.004721         2.569627         1.457874
 H        -0.025188         0.340193         2.116821
 H        -1.657398        -0.103863         1.815640
 H         0.151182        -1.648232         0.559154
 H        -2.963528         2.064014         2.419895
