19
Iteration:  1535charge 0 multiplicity 1
 O        -3.514906         4.814734         1.099284
 C        -3.156883         3.472863         0.914277
 C        -2.791579         2.659463         2.115616
 C        -2.395005         1.216717         1.689545
 C        -1.355240         1.677260         0.630802
 C         0.004721         1.335150         0.730217
 C         0.465033         0.480279        -0.407134
 O        -0.253199        -0.357638        -0.924054
 C        -1.667604         3.099144         1.033098
 H        -3.284774         5.283250         0.277205
 H        -3.741305         2.781879         0.182715
 H        -2.849250         2.957542         3.191692
 H        -1.848138         0.670844         2.508491
 H        -3.329299         0.554759         1.509020
 H        -1.839143         1.195800        -0.371230
 H         0.720615         2.270479         0.837126
 H         0.304047         0.747554         1.620149
 H         1.485632         0.575066        -0.765787
 H        -0.916213         3.945474         0.926186
