19
Iteration:  4924charge 0 multiplicity 1
 O        -3.664860         4.392154         1.990206
 C        -2.433948         4.020542         1.461931
 C        -2.535942         3.167397         0.155411
 C        -1.233243         2.656552        -0.424133
 C        -0.810787         2.109986         1.001050
 C        -0.696335         0.555293         1.251195
 C        -0.628553        -0.520971         0.318751
 O        -0.381256        -0.419606        -0.849034
 C        -2.154732         2.614534         1.608611
 H        -3.552574         4.245658         2.972638
 H        -1.704966         4.848688         1.357053
 H        -3.462774         2.928997        -0.298193
 H        -1.293930         1.630057        -0.960078
 H        -0.618755         3.358234        -1.051445
 H         0.168164         2.591397         1.311226
 H         0.004329         0.408821         2.098840
 H        -1.676369         0.200466         1.710169
 H        -0.861273        -1.420999         0.866907
 H        -2.689100         1.988827         2.467079
