19
Iteration:  1387charge 0 multiplicity 1
 O        -3.637771         4.699296         1.667259
 C        -3.255155         3.554047         1.020060
 C        -2.569370         2.530757         1.908889
 C        -2.314580         1.169079         1.083651
 C        -1.369200         2.015496         0.178692
 C         0.139838         1.624243         0.284558
 C         0.130761         0.108063         0.293690
 O        -0.038727        -0.599578        -0.702387
 C        -1.708346         3.280647         0.932087
 H        -3.657906         5.517132         1.099973
 H        -3.858868         3.272484         0.177862
 H        -2.408928         2.677924         3.029320
 H        -1.803875         0.425055         1.791249
 H        -3.168152         0.622953         0.699294
 H        -1.630613         2.170838        -0.840783
 H         0.718183         2.158671        -0.404235
 H         0.483214         1.891740         1.298977
 H         0.280235        -0.360829         1.355197
 H        -1.115431         4.210649         1.147647
