19
Iteration:  1628
 O        -3.554731         4.774103         1.017794
 C        -3.206779         3.430117         0.934224
 C        -2.617721         2.884620         2.119565
 C        -2.468586         1.385375         2.113201
 C        -1.531749         1.531960         0.758635
 C        -0.132167         1.022293         0.854732
 C         0.528691         0.339232        -0.357579
 O         0.007841        -0.103651        -1.370145
 C        -1.691495         3.128218         0.855219
 H        -3.749964         5.053311         0.108615
 H        -3.910258         2.772378         0.374553
 H        -2.512409         3.512881         3.007304
 H        -1.750800         0.973200         2.862310
 H        -3.300732         0.714230         1.946716
 H        -1.949787         1.136019        -0.278525
 H         0.546829         1.677195         1.433274
 H        -0.192137         0.148549         1.637680
 H         1.606643         0.267478        -0.331020
 H        -0.936396         3.951050         0.718213
