19
Iteration:  3032charge 0 multiplicity 1
 O        -3.341603         4.720712         0.800449
 C        -3.163972         3.376355         1.005242
 C        -2.249199         2.982194         2.123778
 C        -2.342951         1.483200         2.427978
 C        -1.926603         1.161800         0.995657
 C        -0.499640         0.701165         0.810217
 C        -0.177280         0.530137        -0.671084
 O         0.925258         0.695688        -1.140988
 C        -1.954341         2.629481         0.564470
 H        -3.798317         5.024352         0.038975
 H        -4.159136         2.845074         1.108043
 H        -1.811162         3.866859         2.724690
 H        -1.756225         0.969519         3.200782
 H        -3.332059         1.067238         2.690935
 H        -2.581371         0.474094         0.434210
 H         0.183191         1.335737         1.379268
 H        -0.515231        -0.381505         1.367071
 H        -1.000640         0.268209        -1.403419
 H        -1.093649         3.113869         0.010122
