19
Iteration:  3287charge 0 multiplicity 1
 O        -3.101578         4.808544         0.978869
 C        -3.029579         3.431637         0.986887
 C        -2.484277         2.798071         2.214410
 C        -2.574002         1.295326         2.099957
 C        -1.723776         1.328543         0.737471
 C        -0.336216         0.847873         0.943976
 C         0.343653         0.608737        -0.309520
 O        -0.128272         0.372650        -1.390019
 C        -1.662008         2.836876         0.681929
 H        -3.383367         4.982179         0.080227
 H        -3.937556         2.919402         0.533131
 H        -2.306172         3.338105         3.121922
 H        -1.994881         0.749519         2.899407
 H        -3.566175         0.644018         2.032135
 H        -2.114709         0.848645        -0.247840
 H         0.127988         1.445088         1.692164
 H        -0.408432        -0.145079         1.313872
 H         1.492902         0.580392        -0.249450
 H        -0.963363         3.585644         0.317987
