19
Iteration:  2027charge 0 multiplicity 1
 O        -3.762420         4.699928         0.953834
 C        -3.381392         3.378972         1.092274
 C        -2.466631         2.953734         2.228222
 C        -2.144917         1.518731         2.302084
 C        -1.769286         1.583543         0.818381
 C        -0.327642         1.017008         0.562063
 C        -0.042926         0.281102        -0.743070
 O         1.080809        -0.072363        -1.103349
 C        -1.929808         3.052541         0.807308
 H        -3.592121         4.942365         0.050470
 H        -4.145735         2.601157         0.675439
 H        -2.191413         3.612384         3.019887
 H        -1.172261         1.400826         2.853475
 H        -2.926198         0.795244         2.573359
 H        -2.594220         1.148236         0.272382
 H         0.507357         1.775018         0.849346
 H        -0.291944         0.047305         1.244843
 H        -0.898203        -0.063424        -1.350935
 H        -1.344702         3.867532         0.582276
