19
Iteration:  2577charge 0 multiplicity 1
 O        -3.499133         4.302303         0.390608
 C        -3.317515         3.005370         0.889279
 C        -2.378810         2.998572         2.051129
 C        -1.957345         1.719176         2.657210
 C        -1.598961         1.192060         1.211954
 C        -0.078479         0.808567         1.040924
 C         0.231396         0.548410        -0.428459
 O        -0.193088         1.110412        -1.427601
 C        -1.886035         2.594689         0.682920
 H        -3.579267         4.268862        -0.607673
 H        -4.280336         2.344169         0.922646
 H        -2.291507         3.946009         2.480594
 H        -0.926476         1.685998         3.285272
 H        -2.635870         1.256824         3.313724
 H        -2.132012         0.353823         0.598463
 H         0.445600         1.723752         1.371308
 H         0.155684        -0.028278         1.697239
 H         1.097654        -0.109771        -0.542608
 H        -1.293013         3.170601        -0.026407
