19
Iteration:  4386
 O        -3.495199         4.608205         2.227836
 C        -2.512990         4.088034         1.240068
 C        -3.165839         2.844559         0.712476
 C        -2.308064         2.389442        -0.477008
 C        -1.074341         2.217159         0.447050
 C        -0.737567         0.822494         0.884913
 C         0.065791        -0.116419        -0.150349
 O         0.301547        -1.288927        -0.040510
 C        -1.772687         2.934046         1.630381
 H        -2.904116         5.139452         2.822438
 H        -2.107054         4.853541         0.589790
 H        -4.229124         2.648636         0.933932
 H        -2.482310         1.315637        -0.770886
 H        -2.240273         3.186753        -1.186280
 H        -0.265438         2.826146        -0.090837
 H        -0.140767         0.930890         1.770628
 H        -1.688478         0.256252         1.098938
 H         0.437438         0.442339        -1.024530
 H        -1.537650         2.686648         2.657363
