19
Iteration:  2711
 O        -3.735748         4.487042         0.737197
 C        -3.359667         3.164554         0.936926
 C        -2.480838         3.071892         2.131500
 C        -2.087016         1.708723         2.594121
 C        -1.614767         1.375607         1.018884
 C        -0.127008         0.826337         0.844681
 C         0.513067         0.746374        -0.519864
 O         0.109539         0.122703        -1.496200
 C        -1.882482         2.848627         0.744246
 H        -3.616560         4.687774        -0.240680
 H        -4.123735         2.301640         0.780010
 H        -2.372897         4.111311         2.751363
 H        -1.175018         1.884020         3.267206
 H        -2.809358         0.996982         2.857737
 H        -2.301578         0.725398         0.367764
 H         0.521694         1.270220         1.632105
 H        -0.161375        -0.140760         1.268778
 H         1.386853         1.440968        -0.720469
 H        -1.204315         3.650491         0.339921
