19
Iteration:  3848
 O        -3.091761         5.042740         1.767014
 C        -2.869257         3.878979         1.014834
 C        -3.166865         2.603560         1.688241
 C        -2.970012         1.492334         0.521001
 C        -1.481842         1.909284         0.383550
 C        -0.572300         0.766187         0.872947
 C        -0.083831        -0.044485        -0.290477
 O         1.058152        -0.316278        -0.545178
 C        -1.679857         3.022245         1.304519
 H        -2.554819         5.826247         1.422979
 H        -3.205535         3.926619        -0.043194
 H        -3.710009         2.544521         2.693702
 H        -3.100994         0.405398         0.849125
 H        -3.559343         1.496240        -0.405337
 H        -1.181035         2.075077        -0.734710
 H         0.258817         1.207185         1.361314
 H        -0.974492         0.096523         1.599528
 H        -0.850065        -0.608119        -0.929265
 H        -0.985509         3.464241         1.928258
