19
Iteration:  4403
 O        -3.454600         4.634338         2.116058
 C        -2.512496         4.114183         1.181198
 C        -3.097601         2.903455         0.783619
 C        -2.385633         2.287641        -0.392638
 C        -1.047282         2.235386         0.551812
 C        -0.840657         0.636535         0.804821
 C         0.018167        -0.056119        -0.176426
 O         0.382211        -1.178948        -0.067358
 C        -1.766961         2.922611         1.711476
 H        -3.143794         5.345604         2.726438
 H        -2.114325         4.922369         0.493579
 H        -4.094253         2.621182         1.039219
 H        -2.751568         1.352325        -0.753351
 H        -2.229001         2.981592        -1.296812
 H        -0.044375         2.545720         0.352387
 H        -0.283957         0.415407         1.783647
 H        -1.801749         0.129049         0.800877
 H         0.411939         0.602265        -1.042862
 H        -1.520977         2.826347         2.796713
