19
Iteration:   361
 O        -3.611476         4.831496         1.424834
 C        -2.717507         3.861943         0.927839
 C        -3.188942         2.457093         1.251391
 C        -2.452751         1.577782         0.198331
 C        -1.002325         2.044992         0.690698
 C         0.035091         1.046878         1.097827
 C         0.417844         0.028523         0.107279
 O        -0.349086        -0.418088        -0.735750
 C        -1.823294         2.907604         1.770036
 H        -3.183082         5.514675         1.980440
 H        -2.329247         4.087128        -0.078081
 H        -3.885777         2.362787         2.080993
 H        -2.603784         0.469957         0.304433
 H        -2.601676         1.846268        -0.904954
 H        -0.392679         2.648357        -0.061191
 H         1.021476         1.552882         1.494131
 H        -0.299543         0.371381         1.971839
 H         1.568923        -0.179981         0.129099
 H        -1.499759         3.194041         2.742883
