19
Iteration:  3428
 O        -3.462557         4.879385         1.335092
 C        -3.110044         3.525178         0.894491
 C        -2.666919         2.714331         2.130599
 C        -2.567659         1.236133         1.681567
 C        -1.364680         1.699440         0.580601
 C         0.038395         1.165245         0.689259
 C         0.369203         0.113833        -0.253252
 O        -0.257909        -0.126249        -1.251989
 C        -1.622281         3.101732         1.097897
 H        -3.304134         5.471097         0.593669
 H        -3.752901         3.121573         0.116520
 H        -2.866259         3.161188         3.081140
 H        -2.276499         0.396758         2.335691
 H        -3.382953         0.906369         1.116814
 H        -1.725817         1.740683        -0.449307
 H         0.840605         1.890724         0.430005
 H         0.270605         0.749319         1.752353
 H         1.385581        -0.461208        -0.123759
 H        -0.915413         3.894494         1.157552
