19
Iteration:  3343charge 0 multiplicity 1
 O        -3.352736         4.904306         1.161450
 C        -3.134126         3.540307         0.849454
 C        -2.634403         2.833858         2.168021
 C        -2.510272         1.271068         1.954291
 C        -1.576048         1.520996         0.771347
 C        -0.121414         0.870377         0.877365
 C         0.465159         0.416654        -0.467910
 O        -0.155199        -0.072594        -1.417431
 C        -1.654581         3.049159         1.037322
 H        -2.797807         5.461766         0.611498
 H        -3.923167         3.156474         0.096154
 H        -2.937412         3.380577         3.039361
 H        -2.059935         0.578319         2.648817
 H        -3.428897         0.713029         1.414460
 H        -2.005654         1.279482        -0.278298
 H         0.446155         1.469422         1.576455
 H        -0.230507        -0.038352         1.428789
 H         1.594170         0.537994        -0.458001
 H        -0.877595         3.722187         0.920067
