19
Iteration:  1040charge 0 multiplicity 1
 O        -3.612219         4.772553         1.824862
 C        -3.107524         3.750150         0.984637
 C        -2.683214         2.468013         1.763224
 C        -2.652652         1.256489         0.780061
 C        -1.429535         2.102368         0.093627
 C        -0.053210         1.405752         0.478643
 C         0.521713         0.287158        -0.318849
 O         0.083793        -0.856609        -0.107437
 C        -1.683940         3.241659         1.126502
 H        -3.598866         5.640817         1.430017
 H        -3.713203         3.445490         0.147004
 H        -2.988274         2.412733         2.750058
 H        -2.245330         0.173682         1.190744
 H        -3.609503         0.974671         0.187800
 H        -1.670217         2.263531        -0.991730
 H         0.688570         2.277327         0.361526
 H        -0.139034         1.310351         1.549565
 H         1.204481         0.461128        -1.126655
 H        -0.745398         3.812126         1.369405
