19
Iteration:   440charge 0 multiplicity 1
 O        -3.380084         4.742977         1.739485
 C        -2.788197         3.906308         0.752943
 C        -3.123435         2.426670         1.287595
 C        -2.661288         1.437101         0.295986
 C        -1.224144         1.953993         0.508639
 C        -0.163724         1.038942         1.206914
 C         0.277946        -0.105382         0.356504
 O         0.050187        -0.101689        -0.828264
 C        -1.741271         3.037616         1.378428
 H        -3.334213         5.704978         1.570362
 H        -2.927592         4.135106        -0.284693
 H        -3.701448         2.274373         2.180222
 H        -2.888295         0.297946         0.417419
 H        -2.913497         1.626256        -0.807537
 H        -0.618118         2.264341        -0.361430
 H         0.889538         1.566353         1.115577
 H        -0.132083         0.706666         2.306719
 H         0.786547        -0.965883         0.840523
 H        -1.128097         3.375686         2.211542
