19
Iteration:  4230charge 0 multiplicity 1
 O        -3.631576         4.686274         1.932156
 C        -2.727714         3.894184         1.074975
 C        -2.945707         2.461773         0.929378
 C        -2.099543         1.982018        -0.227271
 C        -0.793254         2.281195         0.635474
 C        -0.045482         0.908808         1.044934
 C        -0.089766         0.192820        -0.177163
 O        -0.530675        -0.892767        -0.337419
 C        -1.715329         2.896675         1.753108
 H        -3.061888         5.408150         2.308386
 H        -2.360689         4.562253         0.278587
 H        -3.936450         1.975350         1.188121
 H        -2.241907         0.970680        -0.532893
 H        -2.282014         2.552020        -1.168904
 H        -0.095055         3.088373         0.096783
 H         0.948298         1.071833         1.466689
 H        -0.621649         0.347325         1.810287
 H         0.420193         0.783664        -0.985007
 H        -1.527112         2.693968         2.856609
