19
Iteration:    69
 O        -3.562972         4.809471         1.553781
 C        -2.578243         3.916139         1.015636
 C        -3.137710         2.507054         0.968900
 C        -2.304430         1.650872         0.068494
 C        -1.025841         2.139602         0.807090
 C        -0.239137         0.905223         1.218070
 C         0.201286         0.329348        -0.121180
 O        -0.146752        -0.756279        -0.601216
 C        -1.864062         2.864134         1.859785
 H        -3.212179         5.727781         1.433004
 H        -2.055986         4.439583         0.173798
 H        -4.205494         2.462013         1.239281
 H        -2.520111         0.532162         0.228229
 H        -2.297480         1.771953        -1.019287
 H        -0.430359         2.853148         0.229496
 H         0.694926         1.189808         1.756258
 H        -0.758960         0.111969         1.781030
 H         0.974970         0.929013        -0.623813
 H        -1.799253         2.949751         2.979515
