19
Iteration:  4620
 O        -3.068646         4.856960         2.080581
 C        -2.285130         4.063245         1.119194
 C        -3.129730         2.885625         0.738148
 C        -2.377193         2.238693        -0.394645
 C        -1.248308         1.797640         0.540412
 C        -1.323003         0.270173         0.904153
 C        -0.299587        -0.482739         0.023491
 O         0.758419        -0.013728        -0.163449
 C        -1.863082         2.746548         1.672095
 H        -2.444904         5.293350         2.650247
 H        -1.850666         4.563939         0.258645
 H        -4.166637         2.776287         1.124331
 H        -2.781348         1.299710        -0.880879
 H        -2.088697         2.926967        -1.228989
 H        -0.257335         2.131139         0.266149
 H        -0.944667         0.004786         1.915526
 H        -2.392781         0.023235         0.892113
 H        -0.385606        -1.527444        -0.325891
 H        -1.709640         2.386300         2.660833
