19
Iteration:  4587
 O        -2.902833         4.926204         2.056809
 C        -2.413915         3.982254         1.151995
 C        -3.239237         2.734071         0.719055
 C        -2.291451         2.186158        -0.398802
 C        -1.192473         1.889470         0.599236
 C        -1.285836         0.409180         0.980285
 C        -0.387473        -0.323747        -0.066811
 O         0.835643        -0.100176        -0.146369
 C        -1.989434         2.668329         1.677666
 H        -2.146516         5.421649         2.370575
 H        -2.017687         4.309827         0.227717
 H        -4.199577         2.410364         1.134510
 H        -2.797370         1.265540        -0.894764
 H        -2.103074         2.918934        -1.216408
 H        -0.141834         2.090988         0.316275
 H        -1.080644         0.034420         2.011428
 H        -2.366161         0.233371         0.782755
 H        -0.922080        -1.073111        -0.607579
 H        -1.842703         2.223233         2.601505
