19
Iteration:  4490
 O        -3.049546         5.026031         2.020871
 C        -2.401088         4.050334         1.326800
 C        -3.204407         3.009247         0.569220
 C        -2.488800         2.094708        -0.399033
 C        -1.318509         1.975212         0.726975
 C        -0.727243         0.537918         1.034796
 C        -0.206014        -0.080517        -0.293951
 O         0.817515        -0.793909        -0.206482
 C        -2.346329         2.618776         1.784683
 H        -2.514585         5.069171         2.817737
 H        -1.475917         4.348012         0.849543
 H        -4.223422         3.195252         0.242799
 H        -3.009402         1.208480        -0.458776
 H        -2.246286         2.300937        -1.428288
 H        -0.456341         2.731976         0.574812
 H         0.223304         0.567716         1.647982
 H        -1.243733        -0.243098         1.545725
 H        -0.739339         0.050037        -1.278549
 H        -2.595470         2.169834         2.702589
