19
Iteration:  3795
 O        -3.250783         4.998538         2.027243
 C        -2.946017         3.933217         1.024614
 C        -3.145765         2.560203         1.524356
 C        -2.919270         1.477470         0.538815
 C        -1.483104         2.046425         0.202241
 C        -0.338307         1.059319         0.556085
 C        -0.114100        -0.177892        -0.237808
 O         1.022406        -0.670478        -0.346160
 C        -1.674177         3.134254         1.283614
 H        -2.575759         5.738518         1.940810
 H        -3.120144         4.322276        -0.025188
 H        -3.773847         2.378422         2.425874
 H        -2.859851         0.438492         1.065810
 H        -3.682512         1.592341        -0.259665
 H        -1.465834         2.295497        -0.792544
 H         0.553910         1.640101         0.641877
 H        -0.522119         0.690066         1.603483
 H        -0.829067        -0.651059        -0.893970
 H        -0.917754         3.488510         1.927922
