19
Iteration:  1785
 O        -3.235306         4.446982         0.385410
 C        -2.999584         3.142198         0.798966
 C        -2.231993         3.026135         2.065531
 C        -2.204640         1.528847         2.576498
 C        -1.845447         1.142143         1.133809
 C        -0.566777         0.371535         0.895312
 C         0.174180         0.672235        -0.275298
 O        -0.113627         1.319152        -1.273499
 C        -1.680778         2.593372         0.659435
 H        -2.838913         4.677827        -0.488271
 H        -3.824478         2.361093         0.784713
 H        -1.981528         3.819754         2.728785
 H        -1.528503         1.526008         3.501526
 H        -3.174986         1.278330         3.063154
 H        -2.802697         0.547432         0.725119
 H         0.147648         0.650600         1.645223
 H        -0.899507        -0.643269         1.074188
 H         1.315981         0.384496        -0.078491
 H        -0.901213         3.051586         0.160401
