19
Iteration:  3961
 O        -2.849693         5.075595         1.493008
 C        -2.658600         3.885884         0.805367
 C        -3.376836         2.675980         1.454187
 C        -3.050834         1.387503         0.599673
 C        -1.458082         1.740016         0.701919
 C        -0.533440         0.561877         1.202613
 C         0.003044        -0.130206        -0.233826
 O         0.859930         0.248181        -0.959334
 C        -1.885908         2.794714         1.707642
 H        -2.097242         5.678087         1.579610
 H        -2.385974         3.927692        -0.322865
 H        -4.260436         2.695322         2.059638
 H        -2.945312         0.527134         1.367606
 H        -3.553361         1.231960        -0.344611
 H        -0.983508         2.238817        -0.257923
 H         0.242188         1.119557         1.649503
 H        -0.961648        -0.151601         1.892118
 H        -0.696983        -1.004315        -0.420687
 H        -1.287844         3.178141         2.610296
