19
Iteration:  3810
 O        -3.274422         4.936172         1.925827
 C        -2.822942         3.991250         1.056252
 C        -3.160133         2.641512         1.640562
 C        -2.993898         1.527002         0.508409
 C        -1.539206         1.909033         0.239982
 C        -0.421457         1.023491         0.685731
 C        -0.074182        -0.125993        -0.294115
 O         1.072029        -0.594005        -0.403472
 C        -1.625304         3.075165         1.245483
 H        -2.676186         5.672636         1.876015
 H        -3.272031         4.090226         0.066379
 H        -3.542130         2.582492         2.613412
 H        -3.154346         0.511330         0.885795
 H        -3.541174         1.479191        -0.459708
 H        -1.281514         2.361578        -0.793954
 H         0.593845         1.522656         0.905012
 H        -0.786688         0.474066         1.641882
 H        -1.069408        -0.545199        -0.651491
 H        -0.680600         3.459420         1.801951
