19
Iteration:   951charge 0 multiplicity 1
 O        -3.479865         4.731281         1.889871
 C        -3.094905         3.754368         0.971834
 C        -2.936410         2.401375         1.637366
 C        -2.666443         1.370830         0.585164
 C        -1.401762         2.200723         0.180223
 C        -0.055557         1.544561         0.338670
 C        -0.039380         0.062499        -0.358446
 O         0.623562        -0.857760         0.088892
 C        -1.691504         3.238238         1.267857
 H        -3.052463         5.525895         1.577153
 H        -3.189927         3.928138        -0.071607
 H        -3.479454         2.240820         2.636990
 H        -2.511522         0.343469         1.157192
 H        -3.524065         1.241873        -0.174892
 H        -1.451380         2.412353        -0.919848
 H         0.870741         1.975127        -0.056959
 H         0.170452         1.356131         1.377265
 H        -0.803050        -0.085077        -1.277802
 H        -1.010697         3.779608         1.870141
