19
Iteration:  4487
 O        -3.039781         5.010563         2.015449
 C        -2.428497         4.048014         1.318389
 C        -3.210690         2.987955         0.575160
 C        -2.486075         2.119185        -0.410234
 C        -1.325230         1.970958         0.735125
 C        -0.698384         0.546791         1.025035
 C        -0.188090        -0.067214        -0.301115
 O         0.795884        -0.805799        -0.196166
 C        -2.329520         2.632606         1.792608
 H        -2.501490         5.093181         2.809327
 H        -1.534541         4.318633         0.828443
 H        -4.199751         3.206145         0.246835
 H        -3.007784         1.130420        -0.486958
 H        -2.177090         2.396123        -1.405349
 H        -0.476994         2.693330         0.627987
 H         0.194339         0.545439         1.612159
 H        -1.333306        -0.224936         1.543430
 H        -0.779852         0.065644        -1.270322
 H        -2.585041         2.219964         2.805362
