19
Iteration:   756
 O        -3.301606         5.062547         1.703055
 C        -2.934227         3.920656         0.932914
 C        -3.188345         2.555112         1.662595
 C        -3.054671         1.370816         0.691407
 C        -1.628416         1.866066         0.350006
 C        -0.337797         1.013335         0.669271
 C         0.100262        -0.111421        -0.273998
 O         1.262598        -0.459486        -0.474923
 C        -1.724392         3.141857         1.437328
 H        -3.426585         5.731271         1.018906
 H        -3.058506         4.013705        -0.218573
 H        -3.708593         2.674965         2.576568
 H        -3.168745         0.369446         1.204846
 H        -3.787246         1.470039        -0.053426
 H        -1.629354         2.122055        -0.670381
 H         0.600865         1.573565         1.073715
 H        -0.571567         0.329464         1.603812
 H        -0.724855        -0.668626        -0.783367
 H        -0.974483         3.247759         2.189381
