19
Iteration:  4033charge 0 multiplicity 1
 O        -3.119764         4.973613         1.687741
 C        -2.605297         3.916225         0.851576
 C        -3.099786         2.582954         1.397699
 C        -2.840627         1.437235         0.365971
 C        -1.347628         1.856035         0.620117
 C        -0.662709         0.633546         1.173291
 C        -0.020204        -0.240244         0.024033
 O         0.583974         0.151006        -0.973783
 C        -1.707932         2.982485         1.574060
 H        -2.568635         5.775088         1.478095
 H        -2.513737         4.155872        -0.197890
 H        -3.918295         2.673654         2.052396
 H        -3.036566         0.490878         0.828453
 H        -3.390106         1.545318        -0.682279
 H        -0.750332         2.188864        -0.163293
 H         0.302244         0.896705         1.765829
 H        -1.245297        -0.034273         1.886125
 H        -0.111579        -1.336859         0.249612
 H        -1.091437         3.238417         2.484479
