19
Iteration:  1132charge 0 multiplicity 1
 O        -3.697180         4.605863         1.476366
 C        -3.006501         3.578641         0.883528
 C        -2.804004         2.412727         1.815193
 C        -2.332311         1.148006         1.089733
 C        -1.273458         2.061283         0.339138
 C         0.191999         1.643980         0.564488
 C         0.263328         0.393274        -0.425353
 O        -0.367521        -0.657948        -0.290419
 C        -1.585515         3.233326         1.231670
 H        -3.175313         5.440923         1.347828
 H        -3.397447         3.507586        -0.107430
 H        -3.130502         2.765268         2.876664
 H        -1.971553         0.383607         1.697049
 H        -2.985905         0.694775         0.305276
 H        -1.379423         2.283185        -0.667858
 H         0.944288         2.342195         0.386657
 H         0.272296         1.348736         1.633630
 H         1.094295         0.359237        -1.247222
 H        -1.032356         3.619718         2.042424
