19
Iteration:  4080charge 0 multiplicity 1
 O        -3.149253         5.067265         1.876281
 C        -2.685547         4.001253         0.972885
 C        -3.277218         2.540368         1.214557
 C        -2.795207         1.570245         0.166370
 C        -1.243726         1.862534         0.478247
 C        -0.458127         0.774342         1.158518
 C         0.272016        -0.246344         0.191313
 O         0.309896        -0.210918        -1.023423
 C        -1.809254         2.934064         1.596881
 H        -2.366606         5.627000         2.116656
 H        -2.531865         4.317095        -0.106037
 H        -3.983892         2.255936         2.053979
 H        -3.063702         0.447082         0.255862
 H        -3.142275         1.981700        -0.838813
 H        -0.659890         2.235505        -0.404383
 H         0.446280         1.169072         1.745824
 H        -1.111485         0.366444         1.981699
 H         0.910973        -0.939256         0.786807
 H        -1.424010         3.195254         2.621723
