19
Iteration:  1906
 O        -3.482124         4.671817         0.696288
 C        -3.209377         3.305395         0.955516
 C        -2.408700         3.011132         2.083683
 C        -2.334410         1.545854         2.374110
 C        -1.702694         1.268870         0.948514
 C        -0.275374         0.633619         0.999561
 C         0.134373         0.239336        -0.381142
 O         0.331458         0.896009        -1.369535
 C        -1.789404         2.745185         0.686103
 H        -2.985995         4.870748        -0.134931
 H        -4.169265         2.616522         0.949222
 H        -2.023932         3.877885         2.642007
 H        -1.589921         1.349535         3.289445
 H        -3.331767         0.956759         2.437771
 H        -2.163014         0.499191         0.337708
 H         0.572032         1.308734         1.352100
 H        -0.348176        -0.313439         1.610558
 H         0.151670        -0.879262        -0.588916
 H        -0.999775         3.262764         0.050242
