19
Iteration:  1701
 O        -3.397686         4.696004         0.834188
 C        -3.145063         3.276994         0.912909
 C        -2.323723         2.981014         2.072205
 C        -2.360921         1.413312         2.302329
 C        -1.751318         1.283277         0.864769
 C        -0.340138         0.838517         0.953435
 C         0.361830         0.415747        -0.261219
 O         0.034577         0.586411        -1.386420
 C        -1.751755         2.769296         0.647777
 H        -3.446489         4.969775        -0.081232
 H        -3.939521         2.696665         0.513978
 H        -2.264297         3.744121         2.842999
 H        -1.790331         1.253824         3.144201
 H        -3.442407         1.152792         2.338934
 H        -2.303671         0.654089         0.292229
 H         0.242097         1.688829         1.371750
 H        -0.106874         0.161258         1.757782
 H         1.283099        -0.280763        -0.165683
 H        -1.018495         3.313311         0.084415
