19
Iteration:  1312
 O        -3.517837         4.784249         1.773698
 C        -3.137242         3.674574         0.968732
 C        -2.744473         2.512162         1.857994
 C        -2.624248         1.202295         1.047598
 C        -1.584381         1.919398         0.187833
 C        -0.050863         1.507541         0.396957
 C         0.603758         0.267621         0.013245
 O         0.027944        -0.674611        -0.520964
 C        -1.675982         3.165883         0.913819
 H        -3.549618         5.634234         1.342853
 H        -3.902806         3.349724         0.169339
 H        -2.778544         2.750497         2.970260
 H        -2.229740         0.392010         1.773638
 H        -3.498692         0.818842         0.608319
 H        -1.847473         1.801379        -0.888169
 H         0.598680         2.216444        -0.264041
 H         0.252657         1.759637         1.394525
 H         1.783970         0.304158         0.271139
 H        -0.766515         3.793748         1.166231
