19
Iteration:  2794charge 0 multiplicity 1
 O        -3.819914         4.593572         0.985662
 C        -3.345701         3.265414         0.995734
 C        -2.378543         3.035274         2.119195
 C        -2.226777         1.488023         2.251140
 C        -1.602363         1.439052         0.839222
 C        -0.054000         1.087607         0.876340
 C         0.228267         0.823147        -0.666394
 O         0.405274        -0.291189        -1.135670
 C        -1.859763         2.967413         0.674704
 H        -4.150447         5.023460         0.220261
 H        -3.965709         2.464899         0.735817
 H        -2.180134         3.886899         2.786185
 H        -1.568829         0.948637         2.877572
 H        -3.156216         0.872253         2.414343
 H        -2.108533         0.878878         0.068001
 H         0.610987         1.940832         1.089365
 H         0.347768         0.114457         1.367232
 H         0.378028         1.730416        -1.309945
 H        -1.036263         3.610906         0.259309
