19
Iteration:   378charge 0 multiplicity 1
 O        -3.499953         4.781202         1.461862
 C        -2.742231         3.741307         0.874309
 C        -3.118203         2.402105         1.236736
 C        -2.451026         1.535690         0.258808
 C        -1.069286         2.151468         0.682473
 C        -0.085774         1.099795         1.257586
 C         0.351338         0.063471         0.103718
 O        -0.311131        -0.420138        -0.836866
 C        -1.732503         3.034453         1.709231
 H        -3.007934         5.270690         2.159943
 H        -2.530319         3.906837        -0.212302
 H        -4.197288         2.153195         1.406309
 H        -2.423619         0.508002         0.514450
 H        -2.772441         1.713106        -0.739108
 H        -0.661106         2.814340        -0.069476
 H         0.797005         1.555047         1.550910
 H        -0.490759         0.543081         2.087760
 H         1.344179        -0.354644         0.308622
 H        -1.255695         3.355711         2.722924
