19
Iteration:  3386
 O        -3.422596         4.949747         1.181111
 C        -3.073760         3.589012         0.911682
 C        -2.747742         2.768863         2.204365
 C        -2.473523         1.175784         1.837021
 C        -1.475147         1.710759         0.693266
 C        -0.151077         1.045999         0.685528
 C         0.433879         0.227220        -0.447765
 O        -0.101508        -0.228078        -1.401548
 C        -1.646221         3.131610         1.252489
 H        -3.185896         5.369023         0.375704
 H        -3.599295         2.921735         0.193087
 H        -3.150409         3.407725         2.982359
 H        -2.118608         0.647369         2.721310
 H        -3.458111         0.616475         1.524957
 H        -1.913505         1.383552        -0.372303
 H         0.669077         1.716227         0.997498
 H        -0.167776         0.272113         1.604465
 H         1.501839         0.085371        -0.321837
 H        -0.923755         3.838460         1.365018
