19
Iteration:  4548
 O        -3.013824         4.891250         2.010784
 C        -2.316492         4.102159         1.211329
 C        -3.229384         3.091696         0.659668
 C        -2.457252         2.139414        -0.364235
 C        -1.334744         1.805266         0.681799
 C        -0.967191         0.358857         1.086092
 C        -0.312646        -0.324545        -0.179357
 O         0.907044        -0.352903        -0.218645
 C        -2.151677         2.660439         1.665009
 H        -2.550320         5.168049         2.825696
 H        -1.586755         4.670486         0.542027
 H        -4.349337         3.146392         0.666245
 H        -3.157775         1.386073        -0.595124
 H        -2.031283         2.547523        -1.294973
 H        -0.432179         2.347365         0.302014
 H        -0.233790         0.376938         1.922167
 H        -1.782517        -0.297708         1.320445
 H        -0.868762        -0.897785        -1.009432
 H        -2.359139         2.527620         2.760816
