19
Iteration:  1010
 O        -3.457440         4.704528         1.875909
 C        -3.114381         3.754191         0.970087
 C        -2.915291         2.449049         1.720333
 C        -2.666879         1.310923         0.739880
 C        -1.401853         2.088265         0.140783
 C        -0.029881         1.435487         0.462314
 C         0.341948         0.277381        -0.367314
 O         0.258999        -0.834158         0.006010
 C        -1.761750         3.245902         1.052117
 H        -2.993114         5.562898         1.748847
 H        -3.696564         3.584162         0.049394
 H        -3.016394         2.280822         2.734421
 H        -2.480954         0.338207         1.233176
 H        -3.481537         1.218741         0.021880
 H        -1.533649         1.999514        -0.980136
 H         0.716173         2.102807         0.093196
 H        -0.015768         1.423044         1.559231
 H         0.809006         0.587340        -1.416500
 H        -0.883816         3.806618         1.472987
