19
Iteration:  3963
 O        -2.848725         5.066380         1.481727
 C        -2.658763         3.875421         0.821385
 C        -3.371115         2.652436         1.451218
 C        -3.033214         1.421546         0.606360
 C        -1.444951         1.727974         0.702666
 C        -0.537786         0.558318         1.205406
 C        -0.006527        -0.117230        -0.213611
 O         0.853552         0.249554        -0.969028
 C        -1.890041         2.812176         1.695847
 H        -2.097345         5.717033         1.612501
 H        -2.404997         3.958467        -0.291026
 H        -4.308716         2.674841         2.087315
 H        -3.020298         0.510527         1.340201
 H        -3.564055         1.253698        -0.423719
 H        -1.024601         2.168957        -0.231222
 H         0.297561         1.112711         1.688329
 H        -0.994492        -0.136016         1.917680
 H        -0.658354        -1.020573        -0.468221
 H        -1.286536         3.148385         2.536070
