19
Iteration:  3708charge 0 multiplicity 1
 O        -3.514594         4.741082         2.019838
 C        -2.950853         3.848120         1.102266
 C        -2.879105         2.428194         1.634443
 C        -2.668176         1.480831         0.419367
 C        -1.317881         2.337333         0.139991
 C        -0.048590         1.369913         0.289370
 C        -0.217159        -0.064208        -0.398732
 O         0.448580        -0.940866         0.047046
 C        -1.541456         3.297469         1.328289
 H        -3.067061         5.633936         1.825929
 H        -3.471691         3.845296         0.081869
 H        -3.648097         2.216919         2.449625
 H        -2.131694         0.436849         0.768181
 H        -3.582393         1.224416        -0.188692
 H        -1.275114         2.731198        -0.983958
 H         0.941981         1.816412         0.042865
 H         0.157344         0.862900         1.383120
 H        -0.823968        -0.155324        -1.339850
 H        -0.882705         3.779111         1.962809
