19
Iteration:  4922
 O        -3.658473         4.391235         1.983676
 C        -2.415501         4.035198         1.473318
 C        -2.558436         3.175818         0.164246
 C        -1.227021         2.663424        -0.439426
 C        -0.790093         2.124665         1.004645
 C        -0.711581         0.557858         1.268355
 C        -0.630038        -0.531002         0.318925
 O        -0.371830        -0.424023        -0.859088
 C        -2.156661         2.598805         1.614642
 H        -3.654134         4.290392         2.925179
 H        -1.741117         4.828135         1.408942
 H        -3.502199         2.954153        -0.335170
 H        -1.413357         1.585574        -0.879817
 H        -0.649813         3.309238        -1.092472
 H         0.080965         2.543574         1.272728
 H         0.000154         0.403563         2.136085
 H        -1.614134         0.207828         1.694175
 H        -0.772964        -1.492775         0.821540
 H        -2.721804         1.979746         2.406251
