19
Iteration:  3971charge 0 multiplicity 1
 O        -2.879021         5.063783         1.462100
 C        -2.636223         3.820994         0.899121
 C        -3.363304         2.602403         1.435540
 C        -2.972288         1.475766         0.600443
 C        -1.452957         1.681621         0.727049
 C        -0.512709         0.572252         1.173569
 C        -0.051505        -0.093825        -0.130140
 O         0.820370         0.264613        -0.974449
 C        -1.866889         2.873759         1.630110
 H        -2.013340         5.551073         1.575249
 H        -2.526691         3.928385        -0.226872
 H        -4.181180         2.694591         2.088971
 H        -3.451362         0.555012         1.028670
 H        -3.387859         1.402989        -0.354996
 H        -1.013785         2.052686        -0.295748
 H         0.349341         0.886547         1.696395
 H        -1.061513        -0.091623         1.830841
 H        -0.551120        -1.000232        -0.509866
 H        -1.247700         3.183070         2.541388
