19
Iteration:  2294charge 0 multiplicity 1
 O        -3.711639         4.294064         0.323428
 C        -3.190608         3.042427         0.921494
 C        -2.437841         3.030576         2.195057
 C        -2.023882         1.624692         2.621576
 C        -1.497838         1.339037         1.175939
 C        -0.150247         0.719342         0.981262
 C         0.406265         0.756710        -0.450142
 O        -0.301610         0.692167        -1.452618
 C        -1.666589         2.885211         0.828887
 H        -3.445952         4.323709        -0.623164
 H        -3.836903         2.101071         0.579992
 H        -2.669380         3.956463         2.728276
 H        -1.215298         1.787098         3.262673
 H        -2.788355         0.972841         3.101445
 H        -2.208526         0.724340         0.378946
 H         0.649294         1.051537         1.653908
 H        -0.287220        -0.431530         1.093190
 H         1.455853         1.052998        -0.484705
 H        -1.061718         3.513974         0.250286
