19
Iteration:  4428
 O        -3.362239         4.928923         2.112083
 C        -2.589609         4.165105         1.234878
 C        -3.129970         2.802473         0.781797
 C        -2.268000         2.168362        -0.374118
 C        -1.113585         2.084896         0.595765
 C        -0.928627         0.536592         0.904456
 C         0.012141         0.012071        -0.209569
 O         0.528628        -1.087179        -0.165377
 C        -1.900900         2.827943         1.675704
 H        -2.901442         5.525365         2.695513
 H        -2.071254         4.862881         0.531836
 H        -4.141469         2.433602         1.036491
 H        -2.635646         1.187584        -0.768225
 H        -1.989515         2.944379        -1.167422
 H        -0.145338         2.423014         0.321613
 H        -0.421404         0.364175         1.865140
 H        -1.913097         0.065087         0.790164
 H         0.060859         0.618917        -1.183397
 H        -1.794959         2.501636         2.668672
