19
Iteration:  3669charge 0 multiplicity 1
 O        -3.551058         4.734546         2.079723
 C        -3.067142         3.767739         1.110716
 C        -2.770662         2.438599         1.664543
 C        -2.633192         1.467044         0.490256
 C        -1.266368         2.225323         0.072116
 C         0.120534         1.429732         0.369675
 C         0.043618         0.083189        -0.396277
 O         0.077079        -1.020367         0.057278
 C        -1.591186         3.303170         1.143109
 H        -3.317085         5.607968         1.761002
 H        -3.623796         3.810250         0.191077
 H        -3.186738         2.206660         2.621568
 H        -2.428865         0.507884         0.864983
 H        -3.384575         1.365460        -0.299424
 H        -1.213496         2.624403        -0.899452
 H         0.968203         1.973501        -0.082115
 H         0.226199         1.309298         1.388508
 H        -0.041421         0.287384        -1.588396
 H        -0.773400         3.860322         1.656302
