19
Iteration:  1769
 O        -3.237341         4.538058         0.430188
 C        -3.148671         3.183580         0.842514
 C        -2.224453         3.015434         2.106666
 C        -2.230512         1.585861         2.549427
 C        -1.841003         1.127060         1.044879
 C        -0.539209         0.355059         0.976591
 C         0.338887         0.658773        -0.294411
 O        -0.115978         1.188276        -1.328832
 C        -1.721601         2.634751         0.759698
 H        -3.062214         4.440063        -0.519443
 H        -4.015894         2.600530         0.580832
 H        -2.079336         3.997380         2.626873
 H        -1.393186         1.223293         3.093300
 H        -3.128469         1.097268         2.916517
 H        -2.559286         0.728649         0.454056
 H         0.134928         0.614755         1.838521
 H        -0.562456        -0.753290         0.983529
 H         1.385613         0.262961        -0.226119
 H        -1.000974         3.072429        -0.026513
