19
Iteration:  4183
 O        -3.466787         4.664475         1.914311
 C        -2.685577         3.929915         1.034114
 C        -3.072560         2.549950         0.995187
 C        -2.314242         1.834128        -0.049646
 C        -0.916029         2.209811         0.606273
 C        -0.250308         0.971366         1.038951
 C         0.306440         0.054521        -0.053978
 O        -0.499209        -0.732057        -0.589220
 C        -1.743806         2.943384         1.700489
 H        -3.033943         5.362273         2.460885
 H        -2.318682         4.544929         0.149525
 H        -3.989299         2.195513         1.415971
 H        -2.483174         0.771743         0.010763
 H        -2.424024         2.119781        -1.076933
 H        -0.212889         2.924104         0.037438
 H         0.591402         1.202945         1.723550
 H        -0.862968         0.282451         1.600330
 H         1.384026         0.002356        -0.273091
 H        -1.434294         3.324890         2.714920
