19
Iteration:   591
 O        -3.062573         4.858212         1.606931
 C        -2.894134         3.819157         0.816319
 C        -3.312394         2.583433         1.467685
 C        -2.925874         1.347854         0.530976
 C        -1.420825         1.776827         0.579531
 C        -0.220742         0.881660         1.135662
 C        -0.057124        -0.065897         0.024612
 O         0.852856         0.034821        -0.770850
 C        -1.810999         3.034105         1.383882
 H        -2.992348         5.641511         1.083473
 H        -3.052678         3.845559        -0.350031
 H        -3.886982         2.668860         2.451912
 H        -3.187258         0.453979         1.155681
 H        -3.325863         1.346459        -0.451914
 H        -1.281782         2.097602        -0.540160
 H         0.733998         1.455214         1.024125
 H        -0.343075         0.604362         2.174942
 H        -0.822639        -0.845291        -0.095731
 H        -1.076146         3.512150         2.121957
