19
Iteration:  1378
 O        -3.608003         4.760900         1.715873
 C        -3.237769         3.502712         1.030671
 C        -2.620105         2.475041         1.884121
 C        -2.312554         1.224189         1.125400
 C        -1.392147         2.048622         0.139255
 C         0.120886         1.629360         0.313189
 C         0.201101         0.069797         0.263857
 O        -0.014942        -0.637661        -0.680583
 C        -1.769321         3.379447         0.901132
 H        -3.385250         5.313723         0.920257
 H        -4.037132         3.130039         0.333409
 H        -2.948006         2.396238         2.958437
 H        -1.654463         0.427662         1.574666
 H        -3.085325         0.745062         0.607573
 H        -1.812540         2.048379        -0.866208
 H         0.739395         1.995440        -0.466389
 H         0.511403         1.834318         1.264815
 H         0.396820        -0.302576         1.299034
 H        -0.976197         4.066847         1.135481
