19
Iteration:  3170
 O        -3.210112         4.716103         0.547325
 C        -3.070578         3.333885         0.930951
 C        -2.092004         3.006091         2.099305
 C        -2.306661         1.501832         2.433340
 C        -1.834239         1.138007         0.977201
 C        -0.692296         0.178791         0.788437
 C         0.076633         0.352883        -0.474548
 O         0.136775         1.431069        -1.029635
 C        -1.661550         2.619000         0.689883
 H        -3.622970         4.724408        -0.379838
 H        -3.914165         2.665485         0.824275
 H        -1.974042         3.805806         2.866660
 H        -1.620714         1.104115         3.110491
 H        -3.229608         1.157350         2.826963
 H        -2.597857         0.648896         0.412224
 H         0.116265         0.184950         1.647613
 H        -0.928600        -1.028407         0.800352
 H         0.492270        -0.644020        -0.688554
 H        -0.894483         3.109585         0.136943
