19
Iteration:   374
 O        -3.525629         4.776598         1.433532
 C        -2.727291         3.767989         0.908964
 C        -3.158377         2.429466         1.252873
 C        -2.439571         1.577209         0.244774
 C        -1.052791         2.140823         0.704725
 C        -0.055207         1.072837         1.234248
 C         0.361853         0.089206         0.084065
 O        -0.316467        -0.434482        -0.813855
 C        -1.737136         2.974962         1.698031
 H        -3.043167         5.262984         2.114670
 H        -2.471146         3.971600        -0.104553
 H        -4.137728         2.152129         1.533257
 H        -2.524925         0.444549         0.517952
 H        -2.843685         1.766108        -0.820476
 H        -0.643015         2.819624        -0.047844
 H         0.911462         1.627027         1.541150
 H        -0.476200         0.518436         2.199050
 H         1.373104        -0.457896         0.259228
 H        -1.317091         3.373175         2.564602
