19
Iteration:  3935charge 0 multiplicity 1
 O        -2.891914         5.109480         1.510453
 C        -2.544406         3.935800         0.914609
 C        -3.408900         2.643106         1.369786
 C        -3.080821         1.356371         0.729183
 C        -1.562269         1.656254         0.694435
 C        -0.496033         0.631176         0.977129
 C        -0.061012        -0.138584        -0.250661
 O         0.973438         0.198943        -0.854540
 C        -1.854737         2.858562         1.664968
 H        -2.197985         5.800456         1.562312
 H        -2.230481         3.993282        -0.103078
 H        -4.333113         2.636505         1.987248
 H        -3.333791         0.639488         1.419324
 H        -3.427339         1.266248        -0.264613
 H        -1.541565         2.020461        -0.363590
 H         0.403471         1.228156         1.272062
 H        -0.796387        -0.106284         1.768885
 H        -0.642054        -1.082195        -0.372529
 H        -1.396170         2.967611         2.612235
