19
Iteration:  2731charge 0 multiplicity 1
 O        -3.809035         4.545584         0.741056
 C        -3.366900         3.197243         0.966425
 C        -2.467832         3.039685         2.235666
 C        -1.980861         1.583287         2.448988
 C        -1.609272         1.440809         0.985925
 C        -0.227150         0.855150         0.852583
 C         0.469440         0.814646        -0.543784
 O         0.191894        -0.020083        -1.403864
 C        -1.857673         2.978746         0.717491
 H        -3.790000         4.550559        -0.219000
 H        -4.241830         2.460247         0.622111
 H        -2.225343         3.770955         3.079358
 H        -0.933370         1.587999         3.098614
 H        -2.733360         0.936600         2.793019
 H        -2.235897         0.829091         0.256159
 H         0.385094         1.427217         1.476886
 H        -0.307827        -0.180772         1.371508
 H         1.442500         1.309088        -0.572350
 H        -1.341866         3.578915        -0.090424
