19
Iteration:  3285
 O        -3.090940         4.802850         0.972734
 C        -3.033129         3.424856         0.999557
 C        -2.488373         2.803993         2.202320
 C        -2.578354         1.289755         2.108081
 C        -1.734936         1.337855         0.737598
 C        -0.351873         0.839704         0.953630
 C         0.347238         0.604081        -0.299296
 O        -0.117215         0.391931        -1.399232
 C        -1.681405         2.831577         0.670341
 H        -3.385316         4.974843         0.025075
 H        -3.897175         2.926601         0.612900
 H        -2.296822         3.403296         3.130339
 H        -1.936506         0.735259         2.940295
 H        -3.527494         0.675658         2.056023
 H        -2.173070         0.815530        -0.201997
 H         0.193678         1.471731         1.662920
 H        -0.378906        -0.265550         1.284263
 H         1.489598         0.575493        -0.298682
 H        -0.835205         3.601011         0.322051
