19
Iteration:  3114
 O        -3.177243         4.619919         0.516223
 C        -3.057508         3.281428         0.945445
 C        -2.319246         3.017792         2.178921
 C        -2.173754         1.525186         2.493994
 C        -1.951103         1.125200         1.049038
 C        -0.706264         0.256277         0.790881
 C        -0.177836         0.429435        -0.614906
 O         0.487351         1.402548        -0.995588
 C        -1.738584         2.560209         0.638837
 H        -2.816031         4.807702        -0.364462
 H        -3.932831         2.679903         0.726601
 H        -1.715027         3.854707         2.674970
 H        -1.252686         1.367912         3.054871
 H        -3.020057         1.000475         2.922181
 H        -2.793854         0.624582         0.592304
 H         0.002896         0.832251         1.517029
 H        -0.971664        -0.840593         1.200327
 H        -0.354300        -0.489896        -1.259254
 H        -0.929305         3.095614        -0.002741
