19
Iteration:  4841
 O        -3.337408         4.914620         1.889763
 C        -2.427603         3.938468         1.323616
 C        -2.743459         2.946653         0.332193
 C        -1.459468         2.416271        -0.305171
 C        -1.139180         1.937436         1.148846
 C        -0.863795         0.412777         1.277234
 C        -0.157209        -0.442652         0.231090
 O        -0.176866        -0.241802        -1.005996
 C        -2.415674         2.485758         1.727671
 H        -2.917252         4.945247         2.736844
 H        -1.515083         4.543144         1.124114
 H        -3.772012         3.043450        -0.000092
 H        -1.597963         1.608649        -0.978850
 H        -0.740922         3.141317        -0.815313
 H        -0.226638         2.361256         1.461790
 H        -0.385872         0.222586         2.258755
 H        -1.776311        -0.164968         1.309493
 H         0.319904        -1.356051         0.556586
 H        -3.022876         2.147098         2.585219
