19
Iteration:  4925charge 0 multiplicity 1
 O        -3.667938         4.392756         1.993757
 C        -2.441432         4.015208         1.454644
 C        -2.526719         3.162948         0.153575
 C        -1.235931         2.651055        -0.417872
 C        -0.818682         2.103984         0.999466
 C        -0.691199         0.556662         1.246432
 C        -0.626736        -0.516134         0.318318
 O        -0.385086        -0.418204        -0.846455
 C        -2.152979         2.618701         1.607167
 H        -3.514161         4.229555         2.983470
 H        -1.684462         4.856871         1.342769
 H        -3.461178         2.922552        -0.286681
 H        -1.249196         1.676194        -0.995081
 H        -0.605800         3.373644        -1.025396
 H         0.200747         2.610934         1.335191
 H         0.004666         0.408082         2.078827
 H        -1.700800         0.205760         1.721570
 H        -0.900683        -1.413895         0.886695
 H        -2.665090         2.008641         2.467612
