19
Iteration:  4123
 O        -3.195815         4.771937         1.934073
 C        -2.636163         3.978330         1.014567
 C        -3.259397         2.585294         1.118087
 C        -2.732434         1.663910         0.024484
 C        -1.155621         2.113944         0.429445
 C        -0.273042         0.923786         1.098685
 C         0.421768        -0.081463         0.250047
 O        -0.084969        -0.464236        -0.834466
 C        -1.831693         2.863896         1.573585
 H        -2.479002         5.418250         2.205615
 H        -2.148852         4.399961         0.150269
 H        -4.191598         2.550619         1.757844
 H        -3.062615         0.594454         0.066282
 H        -2.994255         2.130866        -1.010256
 H        -0.644331         2.668146        -0.299805
 H         0.378850         1.482369         1.829249
 H        -1.019843         0.310248         1.697748
 H         1.455600        -0.437304         0.494990
 H        -1.534750         2.963555         2.620412
