19
Iteration:  1032charge 0 multiplicity 1
 O        -3.605044         4.742225         1.855655
 C        -3.091372         3.724671         0.982743
 C        -2.744448         2.494976         1.754208
 C        -2.677870         1.260130         0.750768
 C        -1.492613         2.056698         0.112700
 C        -0.069250         1.507399         0.459129
 C         0.512444         0.254324        -0.322750
 O         0.127656        -0.855211        -0.077966
 C        -1.587812         3.235113         1.087008
 H        -3.354126         5.560199         1.407770
 H        -3.754817         3.475425         0.161501
 H        -3.154105         2.521465         2.730276
 H        -2.313457         0.306017         1.187510
 H        -3.652411         1.162269         0.255815
 H        -1.488089         2.201814        -1.029164
 H         0.642051         2.290664         0.428067
 H        -0.179160         1.157108         1.520104
 H         1.096511         0.474407        -1.250893
 H        -0.723859         3.822887         1.501580
