19
Iteration:  2868
 O        -3.774959         4.745121         1.039047
 C        -3.353406         3.359530         1.066081
 C        -2.529865         2.967512         2.250917
 C        -2.253798         1.498178         2.325804
 C        -1.732436         1.446323         0.826882
 C        -0.158963         1.109233         0.593962
 C         0.171189         0.549091        -0.844672
 O         0.917122        -0.385301        -1.090792
 C        -2.007487         3.037307         0.769932
 H        -3.605040         5.157378         0.137655
 H        -4.248802         2.720604         0.825826
 H        -2.119554         3.770483         2.895721
 H        -1.497066         1.228254         3.005274
 H        -3.171835         0.777921         2.589891
 H        -2.446279         1.022231         0.052090
 H         0.463097         2.110788         0.707966
 H         0.068963         0.466930         1.339780
 H        -0.347040         1.176427        -1.653364
 H        -1.306019         3.782363         0.251497
