19
Iteration:  3105
 O        -3.170145         4.654291         0.519711
 C        -3.090102         3.260971         0.923917
 C        -2.276382         3.039571         2.193855
 C        -2.245564         1.509870         2.535647
 C        -1.931769         1.103200         0.977556
 C        -0.637580         0.289771         0.800457
 C        -0.172394         0.420456        -0.630572
 O         0.531130         1.328514        -0.997406
 C        -1.849400         2.590809         0.672763
 H        -2.787791         4.677927        -0.372372
 H        -4.037006         2.808596         0.832966
 H        -1.802967         3.970213         2.724475
 H        -1.125409         1.340888         3.063034
 H        -2.933252         0.941261         3.181649
 H        -2.869314         0.696882         0.485342
 H         0.123487         0.847857         1.398692
 H        -0.747965        -0.757319         1.220661
 H        -0.563411        -0.195073        -1.506166
 H        -0.906690         3.003152         0.109353
