19
Iteration:  4163
 O        -3.417429         4.792380         2.033244
 C        -2.732402         4.038033         1.026224
 C        -3.148517         2.573409         0.997892
 C        -2.402228         1.700191        -0.077933
 C        -1.026618         2.131509         0.543154
 C        -0.150342         0.908183         1.193123
 C         0.352108        -0.032090         0.062050
 O        -0.368173        -0.679523        -0.735988
 C        -1.788031         2.985852         1.574505
 H        -2.768712         5.396087         2.383797
 H        -2.448085         4.608911         0.087114
 H        -4.073276         2.386092         1.566413
 H        -2.533749         0.678769        -0.030455
 H        -2.532479         1.895710        -1.163183
 H        -0.400273         2.776659        -0.234337
 H         0.791622         1.133124         1.672339
 H        -0.925749         0.436296         1.805051
 H         1.431373         0.000633        -0.156265
 H        -1.567048         2.794638         2.707229
