19
Iteration:  4522charge 0 multiplicity 1
 O        -3.103062         4.979942         2.036901
 C        -2.235128         4.099508         1.298059
 C        -3.131752         3.135799         0.519489
 C        -2.563421         2.031581        -0.405515
 C        -1.417451         1.866999         0.707768
 C        -0.827772         0.449072         1.082350
 C        -0.186999        -0.227285        -0.129717
 O         0.926495        -0.597601        -0.327748
 C        -2.266877         2.681280         1.783391
 H        -2.755822         5.042185         2.939027
 H        -1.409740         4.638463         0.949249
 H        -4.170020         3.400187         0.442961
 H        -3.376083         1.311759        -0.432165
 H        -2.335724         2.276367        -1.427680
 H        -0.586167         2.489634         0.183272
 H        -0.202078         0.525547         1.996200
 H        -1.554567        -0.372005         1.176818
 H        -0.953800        -0.566738        -0.924288
 H        -2.568172         2.278975         2.715506
