19
Iteration:  4658charge 0 multiplicity 1
 O        -3.071961         4.871697         2.186822
 C        -2.177629         4.109032         1.245660
 C        -3.127549         3.114114         0.526940
 C        -2.497692         2.138815        -0.458864
 C        -1.368758         1.913737         0.567281
 C        -1.220724         0.314809         0.920561
 C        -0.093149        -0.590332         0.227827
 O         0.810323        -0.132908        -0.381394
 C        -2.072241         2.639451         1.600758
 H        -2.507070         5.082066         2.946332
 H        -1.439432         4.792250         0.746555
 H        -4.173852         3.292608         0.642867
 H        -3.041847         1.219508        -0.586726
 H        -2.246821         2.537148        -1.427055
 H        -0.342776         2.440538         0.283434
 H        -0.902699         0.153022         1.998707
 H        -2.202327        -0.221530         0.859904
 H        -0.168676        -1.567656         0.674472
 H        -2.390218         2.372982         2.641222
