19
Iteration:  3745charge 0 multiplicity 1
 O        -3.304526         4.850813         2.022861
 C        -2.954854         3.894543         1.061801
 C        -3.051053         2.453876         1.571851
 C        -2.834999         1.411660         0.404143
 C        -1.396705         2.111548         0.144883
 C        -0.051636         1.358215         0.414811
 C        -0.158292        -0.026919        -0.199205
 O         0.666377        -0.873342        -0.158528
 C        -1.686845         3.185707         1.320134
 H        -2.772726         5.663094         1.983117
 H        -3.359778         4.110923         0.090327
 H        -3.641282         2.337761         2.452429
 H        -2.707539         0.438504         0.791759
 H        -3.646798         1.430994        -0.312608
 H        -1.299308         2.635007        -0.931056
 H         0.713401         2.016623        -0.129578
 H         0.206796         1.359717         1.483781
 H        -1.099998        -0.190015        -0.728572
 H        -0.876738         3.457824         2.093445
