19
Iteration:   134charge 0 multiplicity 1
 O        -3.204656         4.938567         1.893296
 C        -2.728726         3.919786         0.919646
 C        -3.278535         2.460748         0.947129
 C        -2.551586         1.532535        -0.043202
 C        -1.108489         2.181647         0.497865
 C        -0.164028         1.052937         1.221858
 C         0.464350         0.207869         0.117486
 O        -0.122918        -0.672503        -0.520205
 C        -1.975918         2.844199         1.557622
 H        -4.162889         4.897327         1.878062
 H        -2.276643         4.263447        -0.030272
 H        -4.222989         2.171070         1.494328
 H        -2.435391         0.487501         0.293412
 H        -2.890912         1.440703        -0.999273
 H        -0.437389         2.670375        -0.240741
 H         0.587128         1.486551         1.812199
 H        -0.821423         0.437572         1.812867
 H         1.586549         0.371598        -0.043403
 H        -1.897550         2.704414         2.655648
