19
Iteration:  1702
 O        -3.394005         4.695036         0.831546
 C        -3.139574         3.274908         0.919201
 C        -2.329759         2.973776         2.066108
 C        -2.366414         1.429926         2.304166
 C        -1.750116         1.283890         0.868459
 C        -0.337985         0.826592         0.955609
 C         0.366942         0.426431        -0.260330
 O         0.032959         0.593316        -1.388257
 C        -1.759616         2.761267         0.650536
 H        -3.455349         4.951686        -0.100331
 H        -3.920726         2.682146         0.529617
 H        -2.249418         3.755292         2.842754
 H        -1.777111         1.266961         3.133961
 H        -3.425372         1.153617         2.344299
 H        -2.293948         0.642148         0.291228
 H         0.246951         1.655880         1.360570
 H        -0.157592         0.169629         1.754150
 H         1.255019        -0.287590        -0.193308
 H        -0.977340         3.286186         0.069979
