19
Iteration:  4356
 O        -3.401164         4.660872         2.420987
 C        -2.717597         4.064474         1.257291
 C        -3.204163         2.813192         0.576892
 C        -2.239065         2.386331        -0.603143
 C        -1.018348         2.260981         0.458187
 C        -0.437438         0.861316         0.892092
 C         0.102649        -0.062692        -0.174989
 O         0.053559        -1.278963         0.101015
 C        -1.907861         2.848303         1.477645
 H        -2.673423         4.888115         2.985933
 H        -2.327328         4.901911         0.687485
 H        -4.134222         2.219816         0.693892
 H        -2.376735         1.307588        -1.025440
 H        -2.201501         3.023753        -1.521487
 H        -0.108463         2.886942         0.092211
 H         0.485136         1.078636         1.505647
 H        -1.199649         0.243240         1.441387
 H         0.579494         0.342103        -1.141345
 H        -1.756780         2.488315         2.578645
