19
Iteration:   467charge 0 multiplicity 1
 O        -3.338213         4.845934         1.732605
 C        -2.860146         3.806782         0.919020
 C        -3.199537         2.414195         1.310540
 C        -2.698679         1.383944         0.380255
 C        -1.253166         2.094376         0.370954
 C        -0.262294         1.094286         1.062104
 C         0.219121        -0.166395         0.340791
 O         0.340466        -0.229507        -0.872518
 C        -1.669984         3.121537         1.447115
 H        -3.254023         5.674998         1.255332
 H        -2.765706         4.095618        -0.178176
 H        -3.900448         2.254227         2.141930
 H        -2.723327         0.422717         0.764165
 H        -3.035181         1.382723        -0.630435
 H        -0.859393         2.452258        -0.591179
 H         0.609752         1.473286         1.553042
 H        -0.839083         0.668069         1.945980
 H         0.207791        -1.164054         0.882778
 H        -1.098367         3.483369         2.335389
