19
Iteration:  4146charge 0 multiplicity 1
 O        -3.348160         4.852806         2.053583
 C        -2.701887         4.053066         1.045743
 C        -3.161328         2.572263         0.960601
 C        -2.519773         1.679767        -0.095807
 C        -1.089295         1.973100         0.538496
 C        -0.235459         0.922857         1.129254
 C         0.349805         0.012914         0.133431
 O        -0.231887        -0.604705        -0.779124
 C        -1.766207         2.922577         1.600318
 H        -2.590295         5.392644         2.295364
 H        -2.505244         4.509591         0.075370
 H        -4.025892         2.126793         1.510429
 H        -2.981270         0.627424         0.147141
 H        -2.849633         1.932351        -1.147951
 H        -0.378003         2.394774        -0.089296
 H         0.464144         1.723513         1.498742
 H        -0.678991         0.281260         1.953251
 H         1.452930        -0.222159         0.281029
 H        -1.478729         3.202299         2.558643
