19
Iteration:  3470charge 0 multiplicity 1
 O        -3.470917         4.797205         1.463121
 C        -3.118341         3.531597         0.941324
 C        -2.635553         2.584117         2.021958
 C        -2.349996         1.182382         1.382171
 C        -1.317291         1.875025         0.362993
 C         0.050547         1.298387         0.642322
 C         0.210442         0.051871        -0.015818
 O        -0.351915        -0.186655        -1.093106
 C        -1.686013         3.214160         1.075745
 H        -3.005346         5.572395         1.012492
 H        -3.757020         3.234713         0.139208
 H        -2.765588         2.714706         3.063985
 H        -1.840814         0.517270         2.169475
 H        -3.271940         0.806437         1.074737
 H        -1.554637         1.715479        -0.627463
 H         0.956395         1.900070         0.395738
 H         0.186623         1.114341         1.675805
 H         0.930765        -0.608878         0.393579
 H        -0.907573         4.003240         1.050004
