19
Iteration:  2335charge 0 multiplicity 1
 O        -3.623264         4.347047         0.508607
 C        -3.262634         3.016535         0.835916
 C        -2.328144         3.012079         1.998151
 C        -2.091806         1.647876         2.612461
 C        -1.513359         1.219890         1.125661
 C        -0.020132         0.852517         1.084541
 C         0.332283         0.591686        -0.369149
 O        -0.312948         0.988850        -1.338965
 C        -1.758872         2.628780         0.555006
 H        -3.767947         4.233755        -0.421117
 H        -4.003125         2.243526         0.785253
 H        -2.364224         3.854401         2.598306
 H        -1.170753         1.682898         3.379036
 H        -3.055745         1.147109         2.866990
 H        -2.227821         0.467820         0.774892
 H         0.594599         1.701135         1.410191
 H         0.121566         0.029360         1.714680
 H         1.386577         0.042076        -0.627285
 H        -1.167950         3.207661        -0.141966
