19
Iteration:  2379charge 0 multiplicity 1
 O        -3.625612         4.375020         0.459610
 C        -3.355966         3.114168         1.055856
 C        -2.167626         3.015120         1.989975
 C        -2.050312         1.619905         2.553654
 C        -1.628105         1.151087         1.101861
 C        -0.130743         0.917644         1.081065
 C         0.353256         0.487886        -0.343865
 O        -0.044844         1.092625        -1.334859
 C        -2.012658         2.509338         0.456251
 H        -3.856632         4.110047        -0.420283
 H        -4.222344         2.569500         1.251896
 H        -1.758621         3.882415         2.463295
 H        -1.027831         1.627049         3.239983
 H        -2.935055         1.034022         2.935153
 H        -2.049945         0.247592         0.726697
 H         0.260281         1.975915         1.318887
 H         0.455197         0.301038         1.741057
 H         0.977223        -0.432412        -0.517264
 H        -1.550982         3.040923        -0.310004
