19
Iteration:  3824charge 0 multiplicity 1
 O        -3.229036         4.955619         1.894396
 C        -2.863040         3.930432         0.949583
 C        -3.012326         2.584631         1.609224
 C        -3.097439         1.546572         0.542672
 C        -1.521214         1.951218         0.265833
 C        -0.456054         0.895376         0.781314
 C        -0.027128        -0.103811        -0.243040
 O         1.050814        -0.500192        -0.475856
 C        -1.659535         3.078195         1.297694
 H        -2.706903         5.782396         1.746627
 H        -3.016960         4.120162        -0.083299
 H        -3.540682         2.630790         2.630878
 H        -3.194239         0.544133         0.812245
 H        -3.919590         1.795736        -0.113700
 H        -1.259460         2.175166        -0.883687
 H         0.421612         1.499976         1.128083
 H        -0.773271         0.369203         1.679059
 H        -0.860286        -0.512110        -0.934631
 H        -0.948723         3.297933         2.110024
