19
Iteration:  2996
 O        -3.478578         4.748400         0.945500
 C        -3.390288         3.378964         1.114825
 C        -2.333517         3.097353         2.154589
 C        -2.232199         1.515425         2.331575
 C        -1.920421         1.299479         0.822807
 C        -0.519539         0.710882         0.705487
 C        -0.023782         0.387623        -0.732402
 O         1.133909         0.373654        -1.124577
 C        -2.016649         2.825815         0.658356
 H        -3.367104         4.820128         0.000852
 H        -4.339627         2.860198         1.250907
 H        -1.967053         3.849478         2.842580
 H        -1.261720         1.175808         2.956936
 H        -3.176138         1.079973         2.634201
 H        -2.774390         0.660919         0.441064
 H         0.206031         1.276710         1.207851
 H        -0.692842        -0.170178         1.332421
 H        -0.901523         0.058197        -1.361199
 H        -1.269336         3.459443         0.077483
