19
Iteration:   187
 O        -3.554725         4.825222         1.906141
 C        -2.897101         4.010350         0.979282
 C        -3.125577         2.609240         1.151368
 C        -2.623100         1.747138        -0.056655
 C        -1.080486         2.103534         0.356335
 C        -0.262982         0.957321         1.096757
 C         0.527192        -0.015844         0.282142
 O         0.028757        -0.767714        -0.553562
 C        -1.709651         2.980182         1.418101
 H        -2.880367         5.432056         2.204906
 H        -2.972579         4.229051        -0.059968
 H        -3.736110         1.995093         1.858750
 H        -2.933924         0.712316         0.196105
 H        -2.798698         1.950885        -1.189501
 H        -0.412202         2.475772        -0.445552
 H         0.446236         1.464062         1.710721
 H        -0.957991         0.424400         1.743181
 H         1.624777         0.040674         0.421359
 H        -1.241816         3.226434         2.412056
