19
Iteration:  2729
 O        -3.802594         4.542543         0.741243
 C        -3.364944         3.188799         0.960127
 C        -2.472613         3.069447         2.237800
 C        -1.974514         1.583556         2.438209
 C        -1.602183         1.432153         1.003085
 C        -0.221469         0.851584         0.849753
 C         0.469856         0.808535        -0.540006
 O         0.185798        -0.006067        -1.413823
 C        -1.865839         2.969219         0.724287
 H        -3.771740         4.583912        -0.262259
 H        -4.207167         2.498841         0.639683
 H        -2.352035         3.765315         3.000286
 H        -0.968143         1.561455         3.076174
 H        -2.780527         0.904657         2.882840
 H        -2.231886         0.805740         0.346860
 H         0.427908         1.460173         1.434767
 H        -0.309139        -0.249627         1.333494
 H         1.454919         1.308858        -0.535164
 H        -1.351342         3.531109        -0.064381
