19
Iteration:   637
 O        -3.384997         5.109597         1.364001
 C        -2.798716         3.854653         0.949867
 C        -3.294879         2.570587         1.593854
 C        -2.897079         1.355471         0.725695
 C        -1.370847         1.911388         0.535000
 C        -0.449976         0.763539         1.007103
 C         0.004552        -0.250893        -0.160612
 O         1.010750        -0.005276        -0.800308
 C        -1.690664         3.006146         1.559055
 H        -2.607532         5.691225         1.389566
 H        -2.669438         3.749729        -0.169497
 H        -3.734490         2.483121         2.554839
 H        -2.580706         0.437094         1.286888
 H        -3.442300         1.067440        -0.158548
 H        -1.098243         2.384061        -0.473672
 H         0.411452         1.290871         1.446465
 H        -0.824899         0.191819         1.788947
 H        -0.702157        -1.058520        -0.484845
 H        -1.096470         3.170748         2.485052
