19
Iteration:  3863
 O        -2.998268         5.117825         1.707211
 C        -2.918964         3.877853         0.957919
 C        -3.214966         2.551374         1.608388
 C        -2.981975         1.462946         0.596235
 C        -1.455263         1.807174         0.417831
 C        -0.523952         0.697374         0.916706
 C        -0.102782        -0.065047        -0.317705
 O         1.041465        -0.163265        -0.583099
 C        -1.742691         3.018743         1.398159
 H        -2.331078         5.645969         1.280978
 H        -3.173644         4.102833        -0.150145
 H        -3.616991         2.369428         2.560859
 H        -3.018722         0.399993         1.117213
 H        -3.667311         1.676543        -0.297809
 H        -1.114540         2.225567        -0.468727
 H         0.422223         0.962678         1.431196
 H        -1.143502        -0.044734         1.479183
 H        -1.010240        -0.529056        -0.895144
 H        -1.038583         3.312943         2.247947
