19
Iteration:  4788charge 0 multiplicity 1
 O        -3.228597         4.881709         1.846207
 C        -2.201489         4.044388         1.368427
 C        -2.855584         2.921542         0.431760
 C        -1.855456         2.179965        -0.351572
 C        -1.202341         1.701530         0.985436
 C        -1.229602         0.144178         1.118684
 C        -0.003861        -0.282005         0.314023
 O         0.065195         0.038794        -0.844320
 C        -2.225892         2.669132         1.756918
 H        -2.853553         5.250606         2.635088
 H        -1.339918         4.611328         1.184101
 H        -3.878517         3.109298         0.072685
 H        -2.318222         1.363805        -0.856043
 H        -1.177275         2.644839        -1.086065
 H        -0.155225         1.939127         1.135681
 H        -1.061471        -0.129693         2.202045
 H        -2.168971        -0.241992         0.813894
 H         0.913754        -0.586434         0.930713
 H        -2.781946         2.364515         2.663710
