19
Iteration:   480
 O        -3.385934         4.976836         1.737319
 C        -2.889145         3.917015         0.935927
 C        -3.190520         2.413133         1.414175
 C        -2.613686         1.396399         0.346470
 C        -1.244666         2.070360         0.401531
 C        -0.327958         0.985496         0.999913
 C         0.166102        -0.243936         0.281613
 O         0.489593        -0.257081        -0.867190
 C        -1.762360         3.072289         1.426157
 H        -3.077859         5.808920         1.303226
 H        -3.093068         4.085632        -0.194986
 H        -3.766861         2.142096         2.264772
 H        -2.464642         0.417818         0.776807
 H        -3.286586         1.173715        -0.448825
 H        -0.917222         2.592755        -0.575946
 H         0.560269         1.503893         1.325608
 H        -0.835519         0.657560         1.863889
 H         0.435907        -1.035184         1.081087
 H        -1.182999         3.399902         2.221591
