19
Iteration:   946charge 0 multiplicity 1
 O        -3.521653         4.704940         1.864180
 C        -3.015320         3.760963         1.006054
 C        -2.968425         2.404095         1.631136
 C        -2.707544         1.387312         0.626869
 C        -1.402833         2.191181         0.141118
 C        -0.028645         1.547283         0.313151
 C        -0.037552         0.061322        -0.368469
 O         0.645027        -0.873232         0.087011
 C        -1.684199         3.262977         1.283813
 H        -3.103464         5.583049         1.666194
 H        -3.331253         4.017144        -0.088192
 H        -3.382573         2.249937         2.571802
 H        -2.652037         0.425422         0.977857
 H        -3.489118         1.404761        -0.100165
 H        -1.577551         2.503132        -0.891462
 H         0.957984         1.965273        -0.010186
 H         0.192858         1.209899         1.373254
 H        -0.818688        -0.281068        -1.025023
 H        -0.948753         3.797605         1.950089
