19
Iteration:  3315
 O        -3.251310         4.863150         1.105677
 C        -3.118527         3.514203         0.932269
 C        -2.519796         2.823874         2.135083
 C        -2.644103         1.273981         1.990809
 C        -1.635241         1.381873         0.725649
 C        -0.142428         0.816149         0.903692
 C         0.465456         0.520961        -0.375425
 O        -0.209206         0.159384        -1.353174
 C        -1.626315         2.928384         0.811771
 H        -3.167797         5.193692         0.227867
 H        -3.937368         3.003807         0.465988
 H        -2.395700         3.531662         3.023852
 H        -2.236398         0.606997         2.781902
 H        -3.505371         0.804687         1.708490
 H        -1.970777         1.056864        -0.220855
 H         0.367822         1.551720         1.585502
 H        -0.200234        -0.113985         1.604397
 H         1.521137         0.795236        -0.537556
 H        -0.790077         3.696783         1.011995
