19
Iteration:  1085
 O        -3.568494         4.727867         1.719941
 C        -3.231065         3.580582         0.899088
 C        -2.789450         2.464030         1.844067
 C        -2.440120         1.267544         0.900664
 C        -1.282879         2.106388         0.249196
 C         0.190587         1.469421         0.549646
 C         0.397411         0.288620        -0.286452
 O        -0.154923        -0.775363        -0.270577
 C        -1.798601         3.284609         1.076663
 H        -3.434548         5.488934         1.132540
 H        -3.730002         3.541831        -0.038801
 H        -2.840789         2.318341         2.867971
 H        -2.016349         0.304874         1.419494
 H        -3.425477         0.974071         0.430909
 H        -1.063293         2.159752        -0.769051
 H         1.055707         2.103309         0.280449
 H         0.334598         1.204634         1.602671
 H         1.132198         0.481012        -1.144242
 H        -1.333344         4.215313         1.467795
