19
Iteration:  2642
 O        -3.572254         4.348516         0.438600
 C        -3.217879         3.091162         0.949007
 C        -2.229116         3.041591         2.115055
 C        -2.054489         1.545880         2.466309
 C        -1.561888         1.230528         0.987758
 C        -0.108327         0.922823         1.032160
 C         0.392871         0.882143        -0.349072
 O        -0.411914         0.671055        -1.238980
 C        -1.794100         2.648159         0.611156
 H        -3.794017         4.211882        -0.501329
 H        -4.116905         2.335236         1.100646
 H        -2.018260         3.816205         2.753815
 H        -1.345382         1.348751         3.389325
 H        -3.008855         1.210848         2.685239
 H        -2.233661         0.429155         0.543558
 H         0.536646         1.439452         1.622021
 H         0.011637        -0.120546         1.403841
 H         1.457704         1.203306        -0.599928
 H        -1.213492         3.074481        -0.174023
