19
Iteration:  3277charge 0 multiplicity 1
 O        -3.059282         4.799297         0.934401
 C        -3.059958         3.395971         1.018235
 C        -2.461726         2.834832         2.177998
 C        -2.530891         1.275984         2.134587
 C        -1.800327         1.339681         0.762015
 C        -0.395674         0.750122         0.997162
 C         0.407008         0.590320        -0.316091
 O        -0.087497         0.475123        -1.437006
 C        -1.757248         2.845828         0.670338
 H        -3.296685         5.055526         0.010881
 H        -4.046487         2.879992         0.673342
 H        -2.247608         3.515293         2.959259
 H        -1.878961         0.860013         2.879983
 H        -3.647953         0.886884         2.165953
 H        -2.396697         0.729291         0.027284
 H         0.309900         1.346449         1.536356
 H        -0.305925        -0.227858         1.318662
 H         1.539646         0.558632        -0.206521
 H        -0.821403         3.226198         0.517941
