19
Iteration:   686charge 0 multiplicity 1
 O        -3.248042         5.033993         1.444292
 C        -2.892338         3.888340         0.858872
 C        -3.251371         2.629482         1.580157
 C        -3.026302         1.350285         0.782316
 C        -1.488972         1.749712         0.545161
 C        -0.267471         0.861810         1.108655
 C         0.047616         0.060074        -0.223996
 O         1.083224        -0.219027        -0.798667
 C        -1.776323         2.952868         1.474334
 H        -2.434328         5.502892         1.688566
 H        -3.016185         3.833042        -0.184916
 H        -4.179132         2.587837         2.227288
 H        -3.140601         0.453808         1.356342
 H        -3.635779         1.335399        -0.184798
 H        -1.317996         2.097383        -0.499600
 H         0.571913         1.472432         1.410560
 H        -0.555206         0.185800         1.965622
 H        -0.908508        -0.235972        -0.701004
 H        -1.175886         3.411468         2.293060
