19
Iteration:  3038charge 0 multiplicity 1
 O        -3.310143         4.728966         0.786743
 C        -3.175230         3.345651         1.003764
 C        -2.229755         2.988473         2.087509
 C        -2.368690         1.479027         2.449843
 C        -1.933063         1.139827         1.020984
 C        -0.555352         0.644876         0.851972
 C        -0.167615         0.556423        -0.649485
 O         0.914833         0.742911        -1.179496
 C        -1.918020         2.612504         0.596575
 H        -3.850861         5.007549        -0.003353
 H        -4.094362         2.801745         1.057342
 H        -1.818151         3.809480         2.633773
 H        -1.624672         1.189195         3.314133
 H        -3.426759         1.165773         2.519153
 H        -2.550627         0.488091         0.342082
 H         0.068007         1.382046         1.404794
 H        -0.315435        -0.344473         1.153089
 H        -1.020241         0.214026        -1.289486
 H        -1.163375         3.151821        -0.002111
