19
Iteration:  2096charge 0 multiplicity 1
 O        -3.871095         4.716889         1.180030
 C        -3.448459         3.379513         1.151137
 C        -2.325630         3.076721         2.066763
 C        -2.150638         1.551176         2.197944
 C        -1.684920         1.471856         0.722166
 C        -0.304093         0.923926         0.701320
 C         0.236141         0.601885        -0.728278
 O         0.912020        -0.358523        -1.025673
 C        -2.049651         3.048801         0.578369
 H        -4.281534         4.896309         0.334227
 H        -4.281399         2.601511         1.009094
 H        -1.873905         3.656249         2.922113
 H        -1.364189         1.541663         2.861971
 H        -3.059904         0.938276         2.634441
 H        -2.166393         0.994375        -0.097207
 H         0.441974         1.578382         1.176033
 H        -0.223227        -0.085013         1.349910
 H         0.011962         1.466099        -1.515254
 H        -1.444642         3.615407        -0.225847
