19
Iteration:  4735charge 0 multiplicity 1
 O        -2.930644         4.952016         2.039480
 C        -2.214448         4.005748         1.290782
 C        -3.171865         3.086115         0.427358
 C        -2.232063         2.218911        -0.523416
 C        -1.362984         1.777806         0.802603
 C        -1.154412         0.258104         1.107102
 C         0.129091        -0.284563         0.414722
 O         0.446851        -0.128678        -0.711307
 C        -2.397063         2.491695         1.683865
 H        -2.429296         4.880155         2.839774
 H        -1.302129         4.424315         0.952189
 H        -4.253221         3.251945         0.418444
 H        -2.650410         1.364157        -1.022017
 H        -1.571957         2.731954        -1.180686
 H        -0.279589         2.263966         0.921838
 H        -1.168794        -0.061530         2.195483
 H        -2.066782        -0.146554         0.646999
 H         0.708911        -0.993427         1.125577
 H        -2.711136         2.066389         2.631589
