19
Iteration:  4669charge 0 multiplicity 1
 O        -2.969160         4.835614         2.151188
 C        -2.285521         4.077256         1.274270
 C        -3.195974         3.193422         0.509455
 C        -2.488122         2.191258        -0.478425
 C        -1.338873         1.808767         0.599972
 C        -1.112325         0.364135         0.882446
 C        -0.083672        -0.539097         0.343911
 O         0.805374        -0.181095        -0.448892
 C        -2.215763         2.671094         1.610595
 H        -2.464845         5.008144         2.996362
 H        -1.322506         4.445499         0.874440
 H        -4.234654         3.365216         0.690659
 H        -3.204503         1.411248        -0.655971
 H        -2.146663         2.585367        -1.418091
 H        -0.255660         2.219530         0.358528
 H        -0.801469         0.345161         1.982057
 H        -2.107813        -0.135158         0.931525
 H        -0.017983        -1.565531         0.714869
 H        -2.476399         2.243289         2.607040
