19
Iteration:   935
 O        -3.644197         4.714314         1.867170
 C        -2.952231         3.839039         1.021087
 C        -2.987193         2.494874         1.694401
 C        -2.755108         1.409487         0.591696
 C        -1.385189         2.183342         0.120997
 C         0.005080         1.386258         0.216883
 C        -0.032626         0.019174        -0.280518
 O         0.706143        -0.860996         0.059434
 C        -1.616937         3.209890         1.277460
 H        -3.234047         5.584489         1.880620
 H        -3.426975         3.704881        -0.033303
 H        -3.382360         2.410768         2.653037
 H        -2.595916         0.425254         0.823533
 H        -3.468399         1.468784        -0.204888
 H        -1.494927         2.778571        -0.774198
 H         0.684768         2.219786        -0.060483
 H         0.097381         1.250590         1.349909
 H        -0.940365        -0.107165        -0.896038
 H        -0.850367         3.666845         1.976939
