19
Iteration:  1076charge 0 multiplicity 1
 O        -3.544646         4.744885         1.714408
 C        -3.289730         3.615178         0.958578
 C        -2.746153         2.427707         1.844941
 C        -2.483811         1.276022         0.883447
 C        -1.301441         2.124829         0.197637
 C         0.154767         1.484991         0.597130
 C         0.450468         0.250839        -0.306311
 O        -0.109721        -0.850657        -0.268766
 C        -1.752788         3.300443         1.075995
 H        -3.596191         5.558524         1.201923
 H        -3.925160         3.476512         0.094068
 H        -3.091650         2.357595         2.910742
 H        -2.109100         0.420538         1.463022
 H        -3.184686         0.935691         0.079548
 H        -1.428735         2.524702        -0.873186
 H         0.883745         2.167454         0.233046
 H         0.235859         1.393234         1.701913
 H         1.136971         0.475448        -1.073574
 H        -1.164768         4.183192         1.350303
