19
Iteration:  4990
 O        -3.687043         4.572696         1.742368
 C        -2.455431         3.974889         1.367994
 C        -2.563382         2.876308         0.317487
 C        -1.226470         2.507521        -0.260998
 C        -0.728928         2.075904         1.184297
 C        -0.569553         0.526887         1.418270
 C        -0.644652        -0.352509         0.189322
 O        -0.548149        -0.274916        -1.037982
 C        -2.106313         2.542036         1.705233
 H        -3.688179         4.996032         2.609727
 H        -1.705450         4.773089         1.159564
 H        -3.578339         2.624100         0.021140
 H        -1.181993         1.678574        -0.979537
 H        -0.666892         3.437738        -0.619487
 H         0.042666         2.593928         1.639456
 H         0.448465         0.142923         1.734877
 H        -1.244850         0.158270         2.188730
 H        -0.772817        -1.451888         0.518868
 H        -2.707627         2.054465         2.594688
