19
Iteration:  2501
 O        -3.960223         4.200492         0.642951
 C        -3.270328         3.009888         0.944823
 C        -2.137910         3.207685         1.969681
 C        -1.945828         1.826112         2.571948
 C        -1.599032         1.333332         1.061153
 C        -0.369839         0.475261         1.006234
 C         0.224161         0.355700        -0.422522
 O         0.251049         1.157300        -1.331414
 C        -1.789584         2.775544         0.497445
 H        -4.298632         4.209759        -0.270795
 H        -3.754716         2.102143         0.931271
 H        -1.970013         4.201883         2.433227
 H        -0.951556         1.913146         3.168546
 H        -2.829296         1.412772         3.127804
 H        -2.364513         0.698161         0.704926
 H         0.486357         0.986131         1.661312
 H        -0.518892        -0.377977         1.669924
 H         0.981110        -0.502612        -0.675422
 H        -1.110783         3.450063        -0.116198
