19
Iteration:  3515
 O        -3.603756         4.800351         1.697701
 C        -3.084808         3.651389         0.968795
 C        -2.666817         2.585605         1.893626
 C        -2.413887         1.257673         1.130733
 C        -1.335404         2.026610         0.309475
 C         0.127124         1.381008         0.402868
 C         0.303970        -0.041382        -0.027933
 O        -0.323586        -0.561695        -0.894097
 C        -1.600194         3.283662         1.230007
 H        -3.602145         5.602106         1.108786
 H        -3.443010         3.438426        -0.016538
 H        -2.917653         2.477420         2.977378
 H        -1.991129         0.474170         1.818102
 H        -3.197167         0.904480         0.520986
 H        -1.508711         2.217703        -0.686446
 H         0.956443         1.965766        -0.004821
 H         0.402318         1.382858         1.440433
 H         0.953610        -0.564231         0.671051
 H        -1.122237         4.124130         1.631399
