19
Iteration:  2444
 O        -3.837251         4.441839         0.586272
 C        -3.458289         3.075698         1.073074
 C        -2.239896         3.207079         1.950392
 C        -1.895092         1.811252         2.560824
 C        -1.633991         1.149885         1.105528
 C        -0.253810         0.619641         0.874707
 C         0.420166         0.365472        -0.421226
 O         0.345503         1.084161        -1.380676
 C        -2.069211         2.551670         0.595475
 H        -4.073339         4.402154        -0.370039
 H        -4.264579         2.446802         1.300452
 H        -1.987173         4.227787         2.364182
 H        -0.876464         1.757080         3.225284
 H        -2.633705         1.250146         3.125742
 H        -2.418041         0.468172         0.954155
 H         0.418691         1.243884         1.639476
 H        -0.367878        -0.315790         1.475193
 H         1.034587        -0.624140        -0.398277
 H        -1.733441         2.984228        -0.310842
