19
Iteration:  2077
 O        -3.909825         4.701148         1.159721
 C        -3.381772         3.379796         1.090517
 C        -2.366446         3.105181         2.187440
 C        -2.165820         1.594350         2.284072
 C        -1.772891         1.473698         0.724904
 C        -0.322937         0.916143         0.584752
 C         0.196197         0.500181        -0.780741
 O         1.032509        -0.331588        -1.030937
 C        -1.952161         3.097490         0.657183
 H        -4.313063         4.963489         0.305073
 H        -4.028576         2.575841         0.920545
 H        -2.222193         3.947302         2.830096
 H        -1.299602         1.174301         2.901311
 H        -3.222827         1.070661         2.417029
 H        -2.539918         0.806519         0.256578
 H         0.371548         1.651510         0.914338
 H        -0.278941        -0.003300         1.107932
 H        -0.312097         0.825007        -1.657199
 H        -1.233663         3.859816         0.160161
