19
Iteration:  2683
 O        -3.712386         4.459636         0.625120
 C        -3.257543         3.125502         0.892390
 C        -2.347069         3.121643         2.123521
 C        -2.101008         1.657906         2.573759
 C        -1.610597         1.284010         1.159466
 C        -0.084588         0.843430         0.931536
 C         0.398701         0.822326        -0.467810
 O        -0.056187         0.323788        -1.493442
 C        -1.823387         2.750486         0.695049
 H        -3.776802         4.543243        -0.372873
 H        -4.009409         2.377230         0.834133
 H        -2.464925         3.973024         2.740002
 H        -1.351268         1.576483         3.345563
 H        -3.006448         0.880152         2.627906
 H        -2.185389         0.610339         0.560670
 H         0.563485         1.431174         1.658427
 H        -0.047653        -0.250930         1.321682
 H         1.351483         1.360896        -0.561972
 H        -1.210309         3.299839         0.009664
