19
Iteration:  2643
 O        -3.574817         4.350605         0.437963
 C        -3.216633         3.088677         0.947872
 C        -2.221910         3.045782         2.113525
 C        -2.054943         1.546691         2.464661
 C        -1.572038         1.228071         0.986507
 C        -0.103622         0.920414         1.035782
 C         0.393046         0.885406        -0.349636
 O        -0.406988         0.662326        -1.241864
 C        -1.795075         2.658397         0.613876
 H        -3.796450         4.204343        -0.479568
 H        -4.126824         2.336824         1.102597
 H        -2.040955         3.830040         2.783616
 H        -1.357892         1.335360         3.390490
 H        -3.007196         1.154311         2.736317
 H        -2.257405         0.432789         0.516713
 H         0.553937         1.450449         1.632134
 H         0.008916        -0.115083         1.375455
 H         1.456452         1.207042        -0.601703
 H        -1.215542         3.085242        -0.179548
