19
Iteration:  4375
 O        -3.474215         4.644699         2.326132
 C        -2.632688         4.149289         1.213767
 C        -3.073923         2.835665         0.723946
 C        -2.295581         2.364755        -0.508368
 C        -1.019375         2.239822         0.358973
 C        -0.613312         0.849387         0.869841
 C         0.042436        -0.079220        -0.116592
 O         0.235955        -1.303791        -0.000617
 C        -1.857693         2.819091         1.561897
 H        -2.957119         5.087114         2.995227
 H        -2.249766         4.907064         0.550581
 H        -4.093556         2.551930         1.008504
 H        -2.689021         1.498313        -1.133330
 H        -2.143037         3.013285        -1.349334
 H         0.014022         2.667215         0.101802
 H         0.024207         0.942545         1.734594
 H        -1.529883         0.339004         1.303444
 H         0.495103         0.424372        -0.988400
 H        -1.982700         2.518378         2.577272
