19
Iteration:  3144
 O        -3.200136         4.627820         0.586016
 C        -3.047137         3.264146         0.842254
 C        -2.169741         3.071609         2.095777
 C        -2.282924         1.561075         2.554305
 C        -1.850641         1.172644         1.007261
 C        -0.742650         0.070131         0.813215
 C         0.021815         0.357428        -0.599524
 O         0.241383         1.516340        -0.967960
 C        -1.676773         2.600697         0.664740
 H        -3.176377         4.796586        -0.414649
 H        -3.937432         2.515574         0.714012
 H        -1.682159         3.979376         2.521703
 H        -1.528254         1.156195         3.254523
 H        -3.300091         1.222295         2.941117
 H        -2.665667         0.745009         0.388186
 H         0.088068         0.254578         1.605545
 H        -0.930614        -1.086639         0.902323
 H         0.112454        -0.598058        -1.154394
 H        -0.978424         3.181442        -0.001508
