19
Iteration:  1313charge 0 multiplicity 1
 O        -3.525771         4.783892         1.779112
 C        -3.127388         3.682604         0.967763
 C        -2.753483         2.507392         1.859283
 C        -2.619584         1.207523         1.048934
 C        -1.591329         1.915962         0.196097
 C        -0.048146         1.507244         0.387205
 C         0.595050         0.263003         0.018919
 O         0.033389        -0.673206        -0.522308
 C        -1.675317         3.169224         0.915331
 H        -3.526575         5.627591         1.328755
 H        -3.903736         3.353577         0.175687
 H        -2.746533         2.754539         2.973934
 H        -2.226214         0.392959         1.763490
 H        -3.479648         0.795089         0.564630
 H        -1.828929         1.767128        -0.910982
 H         0.635405         2.230217        -0.283894
 H         0.250951         1.797712         1.393022
 H         1.778868         0.264555         0.289354
 H        -0.771545         3.779242         1.097851
