19
Iteration:  3027charge 0 multiplicity 1
 O        -3.354386         4.736285         0.829440
 C        -3.199916         3.373741         1.014565
 C        -2.250270         2.992922         2.152588
 C        -2.341963         1.481979         2.405758
 C        -1.921603         1.189416         0.947108
 C        -0.454405         0.707585         0.787307
 C        -0.183545         0.506471        -0.685782
 O         0.945645         0.652004        -1.105869
 C        -1.980136         2.664041         0.557707
 H        -3.794514         4.864356        -0.068597
 H        -4.141461         2.860398         0.989787
 H        -1.809509         3.732264         2.760211
 H        -1.652522         0.867544         3.181505
 H        -3.292042         1.100561         2.838971
 H        -2.684884         0.460680         0.511998
 H         0.394800         1.259954         1.254229
 H        -0.606695        -0.114921         1.355645
 H        -1.038232         0.309231        -1.359556
 H        -1.147499         3.072083        -0.013574
