19
Iteration:  3584
 O        -3.433126         4.784501         1.920146
 C        -3.095762         3.662171         1.058734
 C        -2.894525         2.363940         1.768546
 C        -2.566106         1.313889         0.761686
 C        -1.294616         2.029446         0.122011
 C         0.187975         1.492647         0.408728
 C         0.462060         0.186659        -0.219327
 O        -0.442613        -0.696211        -0.301841
 C        -1.610808         3.195802         1.106156
 H        -2.775538         5.530450         1.713619
 H        -3.692019         3.652897         0.120016
 H        -2.967702         2.271658         2.828336
 H        -2.301284         0.487387         1.313047
 H        -3.402416         1.082810         0.006698
 H        -1.303417         2.181357        -1.051387
 H         0.825164         2.263687        -0.027551
 H         0.362249         1.620408         1.523879
 H         1.624858         0.005786        -0.513780
 H        -0.969411         4.121741         1.352245
