19
Iteration:  4559charge 0 multiplicity 1
 O        -3.005987         4.978914         2.100137
 C        -2.345972         4.053032         1.133931
 C        -3.199967         2.934108         0.598896
 C        -2.432482         2.131519        -0.397676
 C        -1.316351         1.834194         0.674464
 C        -1.019697         0.332254         0.976504
 C        -0.326731        -0.299579        -0.097551
 O         0.870027        -0.271698        -0.185060
 C        -2.103041         2.668177         1.714595
 H        -2.287975         5.249829         2.661675
 H        -1.596871         4.524804         0.414230
 H        -4.283130         2.961564         0.854824
 H        -2.963315         1.268381        -0.730640
 H        -2.160932         2.741486        -1.264113
 H        -0.282460         2.212244         0.388908
 H        -0.382522         0.179204         1.870430
 H        -1.978327        -0.128984         1.150183
 H        -1.098651        -0.860143        -0.756572
 H        -2.154103         2.285970         2.772023
