19
Iteration:  2512
 O        -3.986163         4.187652         0.592222
 C        -3.155146         3.086079         0.905335
 C        -2.200827         3.220599         2.017690
 C        -1.936708         1.838062         2.553741
 C        -1.605748         1.303752         1.131441
 C        -0.320483         0.514889         1.034107
 C         0.286764         0.343716        -0.465123
 O         0.184060         1.182211        -1.360141
 C        -1.815925         2.716191         0.568557
 H        -4.082821         4.177317        -0.345597
 H        -3.808209         2.287952         1.006352
 H        -2.021235         4.202353         2.442850
 H        -1.123880         1.681749         3.384205
 H        -2.817496         1.339316         3.038910
 H        -2.349866         0.666718         0.743295
 H         0.632185         0.992901         1.523235
 H        -0.539242        -0.511598         1.279001
 H         0.720849        -0.747923        -0.484524
 H        -1.137799         3.339237        -0.085908
