19
Iteration:  2324charge 0 multiplicity 1
 O        -3.662124         4.343322         0.461432
 C        -3.215170         2.963635         0.793127
 C        -2.328875         3.050108         2.027056
 C        -2.061699         1.643961         2.591462
 C        -1.548981         1.223700         1.142082
 C        -0.098265         0.824908         1.032982
 C         0.334881         0.637289        -0.383388
 O        -0.318093         0.915604        -1.367985
 C        -1.723205         2.706750         0.752902
 H        -3.778700         4.442696        -0.515344
 H        -3.955718         2.240680         0.570340
 H        -2.336099         3.995985         2.441975
 H        -1.151871         1.554841         3.356244
 H        -2.811388         1.026444         3.126098
 H        -2.107260         0.431419         0.614060
 H         0.565551         1.561672         1.475622
 H         0.232026        -0.054707         1.505370
 H         1.485261         0.387411        -0.435217
 H        -1.114208         3.280053         0.055204
