19
Iteration:  3463charge 0 multiplicity 1
 O        -3.474522         4.835079         1.444033
 C        -3.098379         3.513307         0.945021
 C        -2.681928         2.612236         2.068457
 C        -2.304562         1.167341         1.442191
 C        -1.348830         1.871662         0.379291
 C        -0.009359         1.313732         0.694932
 C         0.194323         0.074742        -0.071797
 O        -0.344626        -0.158451        -1.129985
 C        -1.608710         3.128835         1.008820
 H        -2.984458         5.504220         0.943533
 H        -3.722493         3.035851         0.152592
 H        -2.970390         2.813353         3.148477
 H        -1.850574         0.523661         2.161404
 H        -3.286926         0.735138         1.103981
 H        -1.429146         1.712486        -0.789783
 H         0.968245         1.815408         0.516639
 H         0.094002         1.078907         1.872807
 H         1.113471        -0.514654         0.441758
 H        -0.885395         3.880087         1.014653
