19
Iteration:  4629
 O        -3.096190         4.867421         2.081700
 C        -2.299617         4.091416         1.188571
 C        -3.127193         2.989713         0.690915
 C        -2.438570         2.175862        -0.387700
 C        -1.245346         1.796555         0.573095
 C        -1.296766         0.275139         0.906618
 C        -0.311636        -0.491238         0.095760
 O         0.810588        -0.012699        -0.218290
 C        -1.788425         2.678773         1.588885
 H        -2.518966         5.246559         2.736432
 H        -1.648251         4.807054         0.554518
 H        -4.133326         2.816320         1.066109
 H        -2.979133         1.277772        -0.893562
 H        -2.045362         2.851424        -1.201483
 H        -0.313115         2.074611         0.217120
 H        -1.043483         0.036727         1.926858
 H        -2.258576        -0.247453         0.692929
 H        -0.665096        -1.589952        -0.144404
 H        -2.028069         2.458168         2.595242
