19
Iteration:  4250charge 0 multiplicity 1
 O        -3.569985         4.549133         1.999377
 C        -2.659126         3.976207         1.091904
 C        -3.026128         2.536225         0.867716
 C        -2.014399         2.019162        -0.253127
 C        -0.830906         2.337107         0.772484
 C        -0.066601         1.062931         1.011548
 C        -0.069742         0.061520        -0.317214
 O        -0.518881        -1.041563        -0.275144
 C        -1.855025         2.945776         1.691556
 H        -3.143773         5.315553         2.362234
 H        -2.391104         4.664461         0.233131
 H        -3.933637         1.960742         1.200100
 H        -2.149656         1.019809        -0.420192
 H        -2.013420         2.579289        -1.198592
 H        -0.100834         3.067380         0.328009
 H         0.935719         1.324267         1.302414
 H        -0.382672         0.612896         1.913310
 H         0.262423         0.572424        -1.301511
 H        -1.753430         3.045131         2.852893
