19
Iteration:  2242charge 0 multiplicity 1
 O        -3.739765         4.368562         0.532359
 C        -3.179998         3.088932         0.779927
 C        -2.420411         3.012599         2.165896
 C        -2.105991         1.601918         2.548486
 C        -1.540497         1.349820         1.086488
 C        -0.114144         0.788306         0.975108
 C         0.311625         0.956137        -0.492528
 O        -0.138782         0.301020        -1.430985
 C        -1.654518         2.895758         0.907114
 H        -3.907687         4.745687        -0.378616
 H        -3.761179         2.231273         0.514621
 H        -2.469169         4.011702         2.762446
 H        -1.280542         1.660215         3.275193
 H        -2.937022         0.873904         2.751578
 H        -2.221128         0.801560         0.504731
 H         0.635468         1.392894         1.563567
 H        -0.052859        -0.350587         1.120805
 H         1.122687         1.709297        -0.616858
 H        -0.968635         3.481934         0.401040
