19
Iteration:  3763
 O        -3.216430         4.917624         2.055203
 C        -3.020383         3.879881         1.047640
 C        -3.215223         2.519399         1.540884
 C        -2.780046         1.501250         0.503040
 C        -1.436540         2.143006         0.196012
 C        -0.169994         1.319152         0.409111
 C        -0.113920        -0.109119        -0.204192
 O         0.845720        -0.861311        -0.232193
 C        -1.723531         3.111054         1.272658
 H        -2.493171         5.533116         1.858398
 H        -3.295724         4.238416        -0.002643
 H        -3.798668         2.210369         2.436332
 H        -2.806544         0.404264         0.948076
 H        -3.411148         1.412131        -0.423505
 H        -1.496949         2.479061        -0.820603
 H         0.778598         1.797495         0.186521
 H        -0.094838         0.935430         1.508134
 H        -1.162553        -0.331392        -0.703435
 H        -1.072400         3.616130         1.904811
