19
Iteration:     7charge 0 multiplicity 1
 O        -3.415617         4.841882         1.818505
 C        -2.764339         3.945229         1.023727
 C        -3.175684         2.597271         0.867043
 C        -2.380971         1.852713        -0.169676
 C        -1.068442         2.182764         0.666799
 C        -0.304429         0.887438         1.102943
 C         0.284920         0.170762         0.015501
 O        -0.000053        -0.918497        -0.439013
 C        -1.867059         2.911528         1.684384
 H        -3.929978         4.320779         2.481037
 H        -2.297450         4.377870         0.126536
 H        -4.054785         2.210877         1.437454
 H        -2.467529         0.764854        -0.128152
 H        -2.234288         2.448952        -1.108183
 H        -0.282584         2.833425         0.184109
 H         0.444480         1.365952         1.771624
 H        -0.876092         0.235841         1.797155
 H         1.146904         0.729144        -0.473697
 H        -1.819326         2.935709         2.773215
