19
Iteration:  3306charge 0 multiplicity 1
 O        -3.186806         4.867104         1.059149
 C        -3.119905         3.445668         0.900138
 C        -2.434956         2.799867         2.135051
 C        -2.560814         1.276092         1.965241
 C        -1.698044         1.382620         0.716157
 C        -0.259210         0.829301         0.976702
 C         0.457248         0.564950        -0.389950
 O        -0.191478         0.238916        -1.330077
 C        -1.704497         2.896709         0.892728
 H        -3.327465         5.250363         0.211758
 H        -3.877689         2.909319         0.411932
 H        -2.369232         3.450832         3.037814
 H        -2.153964         0.573020         2.799127
 H        -3.588535         0.986498         1.802410
 H        -2.183366         0.887321        -0.158595
 H         0.373056         1.588144         1.474634
 H        -0.160684        -0.230222         1.498200
 H         1.546428         0.671625        -0.559098
 H        -0.696234         3.480569         0.644771
