19
Iteration:  1711charge 0 multiplicity 1
 O        -3.358043         4.670407         0.793624
 C        -3.148234         3.304905         0.899654
 C        -2.356342         2.945179         2.083426
 C        -2.399415         1.562981         2.322973
 C        -1.750463         1.244080         0.911004
 C        -0.310444         0.743834         1.014450
 C         0.413640         0.436095        -0.279861
 O        -0.001207         0.685968        -1.432191
 C        -1.786930         2.735345         0.637598
 H        -3.520286         4.784337        -0.156617
 H        -3.979903         2.616851         0.730342
 H        -2.029162         3.730993         2.730044
 H        -1.731502         1.166596         3.041967
 H        -3.354167         0.988149         2.565693
 H        -2.269405         0.651165         0.198954
 H         0.382469         1.554247         1.429386
 H        -0.387657        -0.131192         1.708866
 H         1.328097        -0.256054        -0.068262
 H        -0.963710         3.143190         0.133109
