19
Iteration:  1288
 O        -3.407243         4.798794         1.675870
 C        -3.211173         3.571316         1.000482
 C        -2.794991         2.448812         1.927261
 C        -2.570891         1.211031         1.066458
 C        -1.491278         1.943704         0.188843
 C        -0.005063         1.569297         0.508609
 C         0.567087         0.318545        -0.162893
 O        -0.010892        -0.739510        -0.490234
 C        -1.788935         3.264097         0.978077
 H        -3.456890         5.515953         1.007285
 H        -3.889280         3.384385         0.138328
 H        -2.790000         2.580030         2.985534
 H        -2.226585         0.323058         1.653579
 H        -3.431404         0.917550         0.477452
 H        -1.648849         1.785133        -0.866938
 H         0.723084         2.383336         0.452778
 H        -0.057384         1.253216         1.543837
 H         1.757796         0.390205        -0.248775
 H        -1.082716         4.165664         1.028314
