19
Iteration:    56
 O        -3.564771         4.886643         1.595963
 C        -2.719270         3.926229         1.074262
 C        -3.079277         2.529076         0.976272
 C        -2.213533         1.694390         0.034485
 C        -0.979789         2.088638         0.858249
 C        -0.284558         0.819723         1.142565
 C         0.183931         0.339679        -0.171085
 O        -0.118855        -0.776836        -0.547319
 C        -1.878612         2.942755         1.807450
 H        -3.580092         5.556675         0.892123
 H        -2.216028         4.190537         0.152669
 H        -3.893593         2.039274         1.404885
 H        -2.402812         0.691858         0.410477
 H        -2.296628         1.862116        -0.964314
 H        -0.189995         2.658038         0.301243
 H         0.609786         0.952659         1.699677
 H        -0.922994         0.148860         1.678144
 H         0.989383         0.910012        -0.692810
 H        -1.847456         2.723431         2.897561
