19
Iteration:  3734
 O        -3.385141         4.808871         2.029311
 C        -2.926220         3.911605         1.035142
 C        -2.977912         2.475304         1.575719
 C        -2.778016         1.444470         0.421432
 C        -1.404153         2.198944         0.214228
 C        -0.094681         1.419601         0.381136
 C        -0.212723        -0.001432        -0.209879
 O         0.629584        -0.909857        -0.113913
 C        -1.666690         3.069716         1.270440
 H        -2.815888         5.649080         1.908232
 H        -3.226325         4.076449         0.014583
 H        -3.099171         2.206613         2.575209
 H        -2.673196         0.449020         0.757886
 H        -3.429595         1.411142        -0.443480
 H        -1.399070         2.703747        -0.882670
 H         0.844542         1.851208        -0.143061
 H         0.266586         1.217435         1.400399
 H        -1.036900        -0.107264        -0.870318
 H        -0.932957         3.504324         2.025562
