19
Iteration:  1944
 O        -3.522043         4.689943         0.798780
 C        -3.261214         3.366388         1.024854
 C        -2.430592         3.008488         2.133284
 C        -2.308699         1.450688         2.324072
 C        -1.700962         1.372815         0.825929
 C        -0.292920         0.885006         0.846133
 C         0.077989         0.067217        -0.393737
 O         0.586181         0.621113        -1.330374
 C        -1.842002         2.836617         0.714308
 H        -3.795687         4.931622        -0.113882
 H        -4.063223         2.704704         0.856709
 H        -2.110311         3.719802         2.907149
 H        -1.569723         1.219952         3.008602
 H        -3.141551         0.777027         2.524457
 H        -2.473587         0.873593         0.117445
 H         0.358387         1.706288         0.973903
 H        -0.140754         0.243924         1.678852
 H        -0.102453        -1.000051        -0.283976
 H        -1.199621         3.614413         0.309404
