19
Iteration:  2535
 O        -3.868218         4.286077         0.403907
 C        -3.319425         3.011212         1.014506
 C        -2.200734         3.192108         2.032443
 C        -1.977725         1.762935         2.640329
 C        -1.550484         1.267952         1.131287
 C        -0.225700         0.538344         1.003357
 C         0.257838         0.378380        -0.495789
 O         0.072696         1.184970        -1.387044
 C        -1.783648         2.705548         0.706009
 H        -3.855938         4.177640        -0.591083
 H        -3.935315         2.197640         0.941885
 H        -2.079263         4.063922         2.568767
 H        -1.155780         1.934249         3.346836
 H        -2.761903         1.294022         3.300560
 H        -2.236978         0.580782         0.729812
 H         0.646242         1.247793         1.290570
 H        -0.267857        -0.419223         1.503327
 H         0.919569        -0.571151        -0.533527
 H        -1.287458         3.303924        -0.051790
