19
Iteration:   956charge 0 multiplicity 1
 O        -3.451225         4.762578         1.912058
 C        -3.140280         3.743758         0.961913
 C        -2.930404         2.418438         1.653302
 C        -2.634677         1.328304         0.560970
 C        -1.384488         2.198056         0.193949
 C        -0.072802         1.485652         0.353317
 C        -0.051175         0.079356        -0.336415
 O         0.598587        -0.836774         0.082135
 C        -1.715059         3.202902         1.239044
 H        -3.005484         5.569682         1.538371
 H        -3.276217         3.836967        -0.163784
 H        -3.447678         2.275671         2.546091
 H        -2.330259         0.454344         1.090447
 H        -3.374945         1.093512        -0.158286
 H        -1.392560         2.522776        -0.873595
 H         0.702122         2.136306        -0.149592
 H         0.159816         1.448430         1.454955
 H        -0.580715         0.136849        -1.309613
 H        -0.982124         3.797677         1.857029
