19
Iteration:  4452charge 0 multiplicity 1
 O        -3.153277         4.952874         2.035565
 C        -2.562384         4.047672         1.166109
 C        -3.261181         2.808527         0.711380
 C        -2.357796         2.324636        -0.386167
 C        -1.189807         2.047694         0.721921
 C        -0.808959         0.527669         1.024784
 C        -0.064454        -0.034730        -0.210462
 O         0.682974        -1.020077        -0.248381
 C        -2.105262         2.714736         1.750760
 H        -2.571254         5.380722         2.658198
 H        -1.929848         4.616783         0.494424
 H        -4.357301         2.811754         0.799369
 H        -2.766253         1.299996        -0.720547
 H        -2.264916         3.069453        -1.201511
 H        -0.248769         2.573966         0.528507
 H        -0.134752         0.529466         1.857654
 H        -1.820701         0.142166         1.255333
 H        -0.281987         0.505603        -1.203025
 H        -2.205048         2.472748         2.835397
