19
Iteration:  3589
 O        -3.404165         4.791548         1.932628
 C        -3.124486         3.665202         1.064874
 C        -2.848072         2.383413         1.710539
 C        -2.563352         1.284924         0.732586
 C        -1.283206         1.998420         0.134698
 C         0.138127         1.514365         0.401046
 C         0.408605         0.207239        -0.215036
 O        -0.422105        -0.679208        -0.262436
 C        -1.607057         3.176922         1.109793
 H        -2.769861         5.454551         1.723925
 H        -3.771147         3.688601         0.176252
 H        -3.026318         2.202151         2.801052
 H        -2.235196         0.298719         1.275067
 H        -3.284579         1.105993        -0.024342
 H        -1.138378         2.173790        -0.949135
 H         0.806101         2.322113        -0.009060
 H         0.399245         1.598401         1.528876
 H         1.398322         0.166772        -0.572376
 H        -0.956709         3.992968         1.301965
