19
Iteration:   922charge 0 multiplicity 1
 O        -3.735156         4.787345         1.890151
 C        -3.043646         3.844331         1.044862
 C        -2.870190         2.517294         1.671679
 C        -2.725000         1.490903         0.500822
 C        -1.380558         2.164098         0.155685
 C        -0.103094         1.410379         0.280929
 C        -0.078982        -0.053365        -0.258644
 O         0.790176        -0.868974         0.020401
 C        -1.596032         3.128073         1.317259
 H        -3.269385         5.655757         1.874447
 H        -3.200388         4.094367        -0.054713
 H        -3.391434         2.424681         2.627860
 H        -2.506350         0.540541         1.007343
 H        -3.521311         1.339211        -0.162626
 H        -1.368209         2.541912        -0.889228
 H         0.733297         1.677995        -0.413373
 H         0.421739         1.404826         1.269216
 H        -0.774750        -0.377684        -1.034760
 H        -0.751086         3.549429         1.904628
