19
Iteration:  2713charge 0 multiplicity 1
 O        -3.741189         4.494272         0.733264
 C        -3.357952         3.167654         0.943642
 C        -2.480149         3.086108         2.141432
 C        -2.059779         1.695366         2.571774
 C        -1.613045         1.381789         1.012222
 C        -0.137102         0.832919         0.829766
 C         0.502157         0.737352        -0.506907
 O         0.122317         0.111438        -1.488824
 C        -1.892599         2.851909         0.750290
 H        -3.648393         4.724881        -0.200347
 H        -4.043741         2.352996         0.803536
 H        -2.489301         4.114015         2.749721
 H        -1.234903         1.816959         3.175044
 H        -2.835938         0.896953         2.887400
 H        -2.310676         0.737359         0.440773
 H         0.574195         1.289926         1.656954
 H        -0.131094        -0.149397         1.219925
 H         1.383068         1.448611        -0.712522
 H        -1.238876         3.628917         0.327205
