19
Iteration:  3106charge 0 multiplicity 1
 O        -3.171660         4.650517         0.519057
 C        -3.083686         3.259703         0.930121
 C        -2.283319         3.041494         2.199119
 C        -2.241680         1.513030         2.530818
 C        -1.929647         1.105610         0.985792
 C        -0.643251         0.278383         0.801089
 C        -0.173945         0.423758        -0.626547
 O         0.525176         1.336880        -0.998058
 C        -1.832542         2.586539         0.663359
 H        -2.780950         4.711999        -0.398518
 H        -4.036418         2.790759         0.813050
 H        -1.791081         3.952179         2.695823
 H        -1.100944         1.345299         3.057413
 H        -2.947135         0.922289         3.152848
 H        -2.885044         0.687221         0.495459
 H         0.052868         0.845061         1.392118
 H        -0.780582        -0.699065         1.211195
 H        -0.520566        -0.218528        -1.491106
 H        -0.922096         2.997335         0.109428
