19
Iteration:  2534charge 0 multiplicity 1
 O        -3.876903         4.286141         0.408091
 C        -3.320559         3.010807         1.016968
 C        -2.194689         3.199363         2.027327
 C        -1.984727         1.757780         2.637179
 C        -1.556545         1.271857         1.130237
 C        -0.221862         0.535536         0.995282
 C         0.257261         0.376461        -0.490551
 O         0.077684         1.184098        -1.385627
 C        -1.773727         2.706781         0.706927
 H        -3.873088         4.204171        -0.596434
 H        -3.931532         2.153927         0.934878
 H        -2.075591         4.081286         2.592435
 H        -1.142116         1.958808         3.383038
 H        -2.732335         1.316620         3.282789
 H        -2.232939         0.554852         0.744603
 H         0.624594         1.231239         1.312513
 H        -0.283073        -0.425487         1.488543
 H         0.900700        -0.567240        -0.536023
 H        -1.270542         3.289134        -0.085374
