19
Iteration:  3956
 O        -2.868820         5.102631         1.522011
 C        -2.644918         3.892445         0.785891
 C        -3.369301         2.725729         1.428346
 C        -3.065967         1.315198         0.617550
 C        -1.497926         1.763626         0.687096
 C        -0.517174         0.582728         1.143357
 C        -0.009327        -0.166189        -0.233962
 O         0.889717         0.249342        -0.942274
 C        -1.866697         2.777936         1.738679
 H        -1.971082         5.557587         1.439511
 H        -2.410733         3.857081        -0.229186
 H        -4.247147         2.834510         2.123630
 H        -2.975503         0.569494         1.318719
 H        -3.632771         1.072871        -0.326293
 H        -0.983626         2.261324        -0.093939
 H         0.333504         1.162896         1.662488
 H        -0.930786        -0.218011         1.823328
 H        -0.728935        -0.984084        -0.407399
 H        -1.425301         3.169051         2.612118
