19
Iteration:  1948charge 0 multiplicity 1
 O        -3.537025         4.692427         0.825120
 C        -3.242263         3.357146         1.014100
 C        -2.437879         3.033654         2.146860
 C        -2.327118         1.455129         2.282574
 C        -1.700323         1.335438         0.848901
 C        -0.302375         0.905349         0.830207
 C         0.062003         0.073975        -0.390444
 O         0.619937         0.587386        -1.348690
 C        -1.844815         2.845541         0.714044
 H        -3.841891         4.848808        -0.069954
 H        -4.183900         2.763909         0.749185
 H        -2.071357         3.683054         2.953291
 H        -1.474660         1.294389         3.088972
 H        -3.160026         0.833997         2.572608
 H        -2.386772         0.925277         0.172922
 H         0.351391         1.881205         0.965031
 H        -0.170653         0.248894         1.770518
 H        -0.096719        -1.039804        -0.351874
 H        -1.092399         3.620930         0.341407
