19
Iteration:  4448charge 0 multiplicity 1
 O        -3.205005         4.977054         2.060821
 C        -2.570270         4.027231         1.174930
 C        -3.252893         2.796312         0.690342
 C        -2.351395         2.325088        -0.405391
 C        -1.157971         2.027872         0.722798
 C        -0.817850         0.531789         0.986228
 C        -0.071972        -0.048574        -0.197396
 O         0.665250        -1.023058        -0.243147
 C        -2.045744         2.735081         1.768541
 H        -2.508147         5.383243         2.663448
 H        -1.928918         4.627896         0.431928
 H        -4.335235         2.787558         0.880616
 H        -2.751384         1.390073        -0.741917
 H        -2.351479         3.013808        -1.337575
 H        -0.259516         2.582080         0.482808
 H        -0.179932         0.440555         1.947061
 H        -1.811859         0.146159         1.249947
 H        -0.167380         0.582475        -1.105976
 H        -2.158670         2.605695         2.805541
