19
Iteration:  1608charge 0 multiplicity 1
 O        -3.625622         4.773788         1.065822
 C        -3.117786         3.475130         0.786908
 C        -2.583483         2.853253         2.183479
 C        -2.390830         1.388042         2.034569
 C        -1.598702         1.552219         0.724787
 C        -0.129391         1.040040         0.769661
 C         0.512673         0.433601        -0.387238
 O        -0.026364        -0.213949        -1.240928
 C        -1.687483         3.045804         0.999160
 H        -3.677874         5.242793         0.185286
 H        -3.479546         2.836804        -0.056047
 H        -2.918544         3.426160         3.061354
 H        -1.664875         0.918311         2.804464
 H        -3.204154         0.745185         1.752685
 H        -2.139071         1.601730        -0.200708
 H         0.335359         1.937612         1.176492
 H        -0.044664         0.239928         1.605134
 H         1.660795         0.446276        -0.489243
 H        -0.835385         3.777569         0.812285
