19
Iteration:  1009
 O        -3.452544         4.710044         1.880991
 C        -3.126847         3.758606         0.960729
 C        -2.913202         2.448434         1.715007
 C        -2.663003         1.304906         0.730862
 C        -1.406436         2.089987         0.144277
 C        -0.031301         1.440342         0.466523
 C         0.343406         0.277872        -0.372633
 O         0.262823        -0.838195         0.010100
 C        -1.759813         3.240584         1.059780
 H        -2.967561         5.567068         1.741382
 H        -3.731142         3.582260         0.091389
 H        -3.039195         2.297046         2.727850
 H        -2.453997         0.296334         1.255061
 H        -3.503867         1.215905         0.011521
 H        -1.512277         2.011089        -0.989167
 H         0.733380         2.095513         0.077743
 H         0.002235         1.406795         1.555083
 H         0.753649         0.583925        -1.418991
 H        -0.887728         3.830293         1.481732
