19
Iteration:  3275charge 0 multiplicity 1
 O        -3.055102         4.801775         0.930229
 C        -3.082485         3.394407         1.004249
 C        -2.446115         2.834683         2.176299
 C        -2.525182         1.288487         2.133597
 C        -1.814024         1.326579         0.777909
 C        -0.396520         0.731930         0.990492
 C         0.416868         0.588024        -0.332567
 O        -0.080618         0.493718        -1.440312
 C        -1.780896         2.834817         0.683720
 H        -3.276949         5.080958        -0.014000
 H        -4.024574         2.914150         0.660497
 H        -2.206343         3.555775         2.979448
 H        -1.833997         0.831046         2.946852
 H        -3.629046         0.934620         2.192616
 H        -2.424786         0.718269         0.012942
 H         0.287397         1.313523         1.564016
 H        -0.326440        -0.247773         1.409660
 H         1.566322         0.551086        -0.145484
 H        -0.747337         3.247141         0.520930
