19
Iteration:  2382charge 0 multiplicity 1
 O        -3.633394         4.375218         0.462456
 C        -3.315649         3.117246         1.046522
 C        -2.172324         3.035089         2.014705
 C        -2.048326         1.621139         2.563434
 C        -1.641084         1.148600         1.109359
 C        -0.137090         0.935552         1.067755
 C         0.338537         0.500520        -0.352798
 O        -0.008083         1.085091        -1.341616
 C        -2.036711         2.495150         0.459941
 H        -3.863672         4.063371        -0.436185
 H        -4.250513         2.467654         1.264505
 H        -1.633675         3.960121         2.463650
 H        -1.125769         1.587785         3.093042
 H        -2.898411         0.994879         2.955937
 H        -2.190014         0.176141         0.824126
 H         0.185908         1.901049         1.271626
 H         0.386588         0.259669         1.714917
 H         1.034474        -0.467137        -0.492235
 H        -1.569402         3.074442        -0.336165
