19
Iteration:  4993
 O        -3.691067         4.577241         1.717930
 C        -2.441234         3.957562         1.380344
 C        -2.573585         2.888687         0.313321
 C        -1.243106         2.493879        -0.286525
 C        -0.737978         2.073510         1.231762
 C        -0.561930         0.514655         1.417294
 C        -0.642890        -0.345505         0.190191
 O        -0.555169        -0.259058        -1.052356
 C        -2.080853         2.533524         1.721357
 H        -3.716116         5.014638         2.562573
 H        -1.609243         4.778598         1.239423
 H        -3.594054         2.531895         0.028762
 H        -1.304990         1.728433        -1.031840
 H        -0.670534         3.414225        -0.723678
 H         0.094494         2.725219         1.796103
 H         0.452028         0.173057         1.696772
 H        -1.275404         0.055665         2.246867
 H        -0.754979        -1.414504         0.609260
 H        -2.657657         2.089908         2.510074
