19
Iteration:  1718charge 0 multiplicity 1
 O        -3.338592         4.659856         0.741877
 C        -3.181426         3.311860         0.869983
 C        -2.338396         3.025387         2.103028
 C        -2.404251         1.502802         2.354990
 C        -1.756397         1.212757         0.940509
 C        -0.299723         0.700650         1.067830
 C         0.408182         0.391905        -0.338792
 O        -0.005175         0.753624        -1.419795
 C        -1.792539         2.730362         0.626136
 H        -3.569086         4.863342        -0.163574
 H        -4.165477         2.735805         0.785290
 H        -1.925230         3.769810         2.769065
 H        -1.604271         1.115008         3.124768
 H        -3.362920         1.052145         2.676956
 H        -2.360040         0.598671         0.108979
 H         0.346248         1.351785         1.698112
 H        -0.196128        -0.367199         1.498433
 H         1.417406         0.011418        -0.106584
 H        -1.037359         3.363269         0.136267
