19
Iteration:  3304charge 0 multiplicity 1
 O        -3.177427         4.866473         1.048868
 C        -3.103546         3.426244         0.904619
 C        -2.431228         2.795917         2.136192
 C        -2.553245         1.269775         1.966088
 C        -1.704445         1.371711         0.713485
 C        -0.282293         0.832896         0.983581
 C         0.463754         0.581723        -0.381073
 O        -0.197777         0.247319        -1.341150
 C        -1.713949         2.895402         0.897494
 H        -3.356813         5.295632         0.196464
 H        -3.887903         2.922159         0.380497
 H        -2.357734         3.418275         3.076807
 H        -2.135085         0.634547         2.775319
 H        -3.541734         1.068328         1.838929
 H        -2.170761         0.900805        -0.110266
 H         0.392533         1.583193         1.488220
 H        -0.184469        -0.212203         1.489389
 H         1.564210         0.649439        -0.482722
 H        -0.751929         3.440600         0.559473
