19
Iteration:  4296
 O        -3.617063         4.578035         2.184583
 C        -2.612972         4.102742         1.293285
 C        -2.994458         2.730117         0.663266
 C        -2.170802         2.138278        -0.461455
 C        -1.009696         2.266196         0.433713
 C        -0.091313         1.093309         0.896427
 C         0.002763         0.043960        -0.164246
 O        -0.330786        -1.152387        -0.012853
 C        -1.814219         2.724366         1.622322
 H        -3.141592         4.938268         2.934839
 H        -1.934246         4.826760         0.821161
 H        -3.981211         2.306511         0.849602
 H        -2.424819         1.158604        -0.791896
 H        -2.050019         2.913695        -1.203265
 H        -0.159950         2.911849         0.005914
 H         0.817664         1.271575         1.427122
 H        -0.593208         0.536564         1.691294
 H         0.322877         0.339371        -1.234430
 H        -1.753222         2.352085         2.598011
