19
Iteration:  2578
 O        -3.495151         4.298180         0.395349
 C        -3.322570         3.005256         0.882391
 C        -2.382382         3.002541         2.050817
 C        -1.954233         1.710508         2.656741
 C        -1.607765         1.190239         1.213603
 C        -0.066238         0.806223         1.046145
 C         0.230378         0.550253        -0.428055
 O        -0.200520         1.109288        -1.429407
 C        -1.884737         2.597845         0.671049
 H        -3.575708         4.304660        -0.609791
 H        -4.240465         2.372381         0.933304
 H        -2.254555         3.925681         2.460607
 H        -0.974440         1.691126         3.290137
 H        -2.661535         1.256527         3.327853
 H        -2.112270         0.358373         0.656359
 H         0.429999         1.763399         1.359121
 H         0.168853        -0.019763         1.691391
 H         1.121101        -0.080805        -0.526077
 H        -1.264341         3.171119         0.009236
