19
Iteration:  1135charge 0 multiplicity 1
 O        -3.692878         4.606490         1.466321
 C        -3.002163         3.563223         0.892349
 C        -2.811642         2.444512         1.819309
 C        -2.321611         1.145082         1.079100
 C        -1.273599         2.077578         0.383008
 C         0.182596         1.641453         0.551139
 C         0.285785         0.393614        -0.435450
 O        -0.377447        -0.667489        -0.295695
 C        -1.594160         3.233224         1.235682
 H        -3.187220         5.407713         1.320130
 H        -3.393324         3.442946        -0.163590
 H        -3.170785         2.598459         2.864560
 H        -2.009456         0.376995         1.752589
 H        -2.935935         0.730080         0.338710
 H        -1.351483         2.272936        -0.715692
 H         1.019755         2.349046         0.319613
 H         0.250485         1.365547         1.606535
 H         1.006541         0.378186        -1.216007
 H        -1.039945         3.637734         2.084726
