19
Iteration:  3477
 O        -3.478563         4.773057         1.490565
 C        -3.142654         3.561640         0.955817
 C        -2.598471         2.538430         1.986743
 C        -2.395707         1.223571         1.354024
 C        -1.322112         1.875574         0.393290
 C         0.102967         1.331736         0.638483
 C         0.232527        -0.006201        -0.037928
 O        -0.353143        -0.225625        -1.054551
 C        -1.687630         3.288548         1.067557
 H        -2.989210         5.484935         0.986995
 H        -3.767824         3.295210         0.055178
 H        -2.672278         2.750169         3.048086
 H        -1.898829         0.509205         2.007239
 H        -3.258317         0.637915         0.864023
 H        -1.699391         1.825919        -0.661720
 H         0.833999         2.046282         0.220206
 H         0.280626         1.193770         1.715236
 H         0.865748        -0.864017         0.393256
 H        -1.001354         4.189527         1.299510
