19
Iteration:  4893charge 0 multiplicity 1
 O        -3.660809         4.511416         1.895269
 C        -2.334015         4.088906         1.511537
 C        -2.566209         3.262854         0.234630
 C        -1.382273         2.519570        -0.391707
 C        -0.949240         1.965397         0.984892
 C        -0.709055         0.518869         1.292484
 C        -0.451378        -0.486445         0.281149
 O        -0.304632        -0.447588        -0.920704
 C        -2.193599         2.582527         1.666723
 H        -3.735921         4.614176         2.851489
 H        -1.578724         4.946730         1.661629
 H        -3.546507         3.232968        -0.192800
 H        -1.669093         1.760820        -1.096651
 H        -0.673182         3.310033        -0.735380
 H         0.146237         2.462768         1.118387
 H         0.036447         0.428029         2.072157
 H        -1.583318        -0.074200         1.790549
 H        -0.408772        -1.582697         0.758877
 H        -2.856004         2.039724         2.425199
