19
Iteration:  4809charge 0 multiplicity 1
 O        -3.227035         4.884913         1.812576
 C        -2.311880         3.967849         1.295150
 C        -2.860021         2.976213         0.393290
 C        -1.666261         2.274111        -0.299931
 C        -1.146842         1.797396         1.101005
 C        -1.091635         0.279672         1.262149
 C        -0.095253        -0.246886         0.244188
 O        -0.042742        -0.055590        -0.926248
 C        -2.296961         2.446357         1.753998
 H        -2.839827         5.160971         2.680898
 H        -1.360496         4.365671         0.884972
 H        -3.933177         3.141979         0.256132
 H        -1.971652         1.513988        -0.967079
 H        -0.963343         3.010973        -0.811835
 H        -0.198535         2.173094         1.256960
 H        -0.974253        -0.090055         2.306297
 H        -1.978377        -0.156139         0.879418
 H         0.661499        -1.009473         0.820291
 H        -2.830271         2.279657         2.720604
