19
Iteration:   901charge 0 multiplicity 1
 O        -3.677459         4.860742         1.934072
 C        -3.033232         3.877751         1.105629
 C        -3.015776         2.466730         1.645641
 C        -2.647660         1.408757         0.464888
 C        -1.372096         2.240403         0.177749
 C        -0.121174         1.268408         0.201969
 C        -0.081758        -0.160706        -0.203197
 O         0.895925        -0.871656        -0.026463
 C        -1.695099         3.340481         1.300761
 H        -3.398498         5.759751         1.651056
 H        -3.356193         3.867013        -0.007082
 H        -3.392361         2.286679         2.658000
 H        -2.449299         0.450015         0.879895
 H        -3.362327         1.268469        -0.310917
 H        -1.288782         2.622772        -0.827822
 H         0.826107         1.750104        -0.283466
 H         0.271993         1.295724         1.284276
 H        -1.020177        -0.504519        -0.796643
 H        -1.035447         3.646177         2.156462
