19
Iteration:  3442
 O        -3.434308         4.797614         1.344425
 C        -3.077606         3.553753         0.956036
 C        -2.620727         2.613043         2.033120
 C        -2.450781         1.186335         1.536340
 C        -1.455897         1.774297         0.563362
 C         0.003209         1.225177         0.747474
 C         0.338002         0.067798        -0.210849
 O        -0.319073        -0.117251        -1.208680
 C        -1.655560         3.257805         1.048962
 H        -3.130916         5.486267         0.680808
 H        -3.652276         3.115647         0.075156
 H        -2.634873         2.804280         3.141880
 H        -2.011091         0.665370         2.355921
 H        -3.486466         0.720919         1.275106
 H        -1.653391         1.378169        -0.535884
 H         0.694552         2.080990         0.603677
 H         0.288560         0.933028         1.861597
 H         1.220485        -0.573172         0.206037
 H        -0.894416         3.957108         1.259068
