19
Iteration:  4075charge 0 multiplicity 1
 O        -3.152160         5.076629         1.868280
 C        -2.713294         4.038596         0.944667
 C        -3.244080         2.541340         1.257255
 C        -2.826730         1.588323         0.156450
 C        -1.271870         1.887509         0.501647
 C        -0.424566         0.698252         1.176406
 C         0.266043        -0.282948         0.165876
 O         0.339364        -0.165840        -1.009745
 C        -1.785512         2.908581         1.571393
 H        -2.403560         5.630467         2.082388
 H        -2.697657         4.228658        -0.111625
 H        -3.997271         2.348017         1.975074
 H        -3.045567         0.590954         0.426232
 H        -3.172265         1.826556        -0.893717
 H        -0.667947         2.309594        -0.295228
 H         0.379337         1.207769         1.752537
 H        -1.017737         0.190276         1.961500
 H         0.776458        -1.126190         0.712917
 H        -1.466745         3.262476         2.573615
