19
Iteration:   653charge 0 multiplicity 1
 O        -3.365759         5.084004         1.341769
 C        -2.847210         3.855466         0.870217
 C        -3.152743         2.599051         1.641816
 C        -2.846013         1.386302         0.774533
 C        -1.418926         1.864849         0.576893
 C        -0.392328         0.728825         0.840102
 C        -0.046369        -0.191305        -0.208077
 O         1.042706        -0.023146        -0.726677
 C        -1.769882         2.997565         1.660932
 H        -2.695357         5.604188         1.768907
 H        -2.884398         3.830920        -0.195575
 H        -4.142352         2.668134         2.204573
 H        -3.031009         0.490711         1.322949
 H        -3.568582         1.273120        -0.134552
 H        -1.172045         2.266661        -0.399620
 H         0.613611         1.043104         1.133103
 H        -0.840650         0.145958         1.772015
 H        -0.545884        -1.153326        -0.363667
 H        -1.178363         3.572166         2.379273
