19
Iteration:  1974charge 0 multiplicity 1
 O        -3.634411         4.728819         0.968143
 C        -3.289322         3.375373         0.941683
 C        -2.439777         3.039112         2.104493
 C        -2.380821         1.450170         2.434349
 C        -1.696571         1.396238         0.880246
 C        -0.181944         0.983023         0.778640
 C         0.039820         0.118832        -0.478474
 O         0.826670         0.327391        -1.395354
 C        -1.854465         2.896794         0.698526
 H        -3.910336         5.105731         0.138035
 H        -4.180824         2.763502         0.634567
 H        -2.396266         3.822996         2.836333
 H        -1.748765         1.074193         3.236293
 H        -3.473279         0.913111         2.469118
 H        -2.465132         0.975174         0.195523
 H         0.380051         1.865752         0.905899
 H         0.012290         0.281662         1.618972
 H        -0.667029        -0.826239        -0.563902
 H        -1.290528         3.615648         0.225821
