19
Iteration:  4661charge 0 multiplicity 1
 O        -3.044782         4.860753         2.177440
 C        -2.208136         4.090905         1.257432
 C        -3.153484         3.140966         0.518456
 C        -2.494308         2.142920        -0.459491
 C        -1.360202         1.917777         0.594106
 C        -1.182984         0.325536         0.905342
 C        -0.096535        -0.591724         0.260628
 O         0.812226        -0.141936        -0.401374
 C        -2.099180         2.640950         1.589192
 H        -2.498019         5.079055         2.992455
 H        -1.339023         4.746392         0.770008
 H        -4.215011         3.343295         0.671352
 H        -3.172878         1.201998        -0.622081
 H        -2.207692         2.606311        -1.440826
 H        -0.399444         2.314343         0.339003
 H        -0.874204         0.203308         1.936177
 H        -2.196216        -0.195555         0.889654
 H        -0.094273        -1.583070         0.735933
 H        -2.438642         2.371789         2.551083
