19
Iteration:  2356
 O        -3.582724         4.374161         0.521734
 C        -3.325985         3.005993         0.894907
 C        -2.273765         3.128797         2.012602
 C        -2.083613         1.630557         2.465202
 C        -1.507090         1.176348         1.090308
 C         0.019841         0.912833         1.057830
 C         0.317314         0.502727        -0.320417
 O        -0.231825         1.076336        -1.257842
 C        -1.969001         2.507870         0.560539
 H        -3.866591         4.329356        -0.427779
 H        -4.132737         2.370511         0.961785
 H        -1.837247         4.019832         2.276779
 H        -1.180604         1.425370         3.217543
 H        -2.978639         1.006421         2.641603
 H        -1.974835         0.273268         0.839016
 H         0.640205         1.775980         1.474482
 H         0.337883         0.028931         1.615748
 H         1.102213        -0.295590        -0.538631
 H        -1.555111         3.098704        -0.245086
