19
Iteration:  1430charge 0 multiplicity 1
 O        -3.754756         4.615231         1.551896
 C        -3.140062         3.482419         0.920086
 C        -2.533836         2.600877         1.971065
 C        -2.318674         1.254412         1.300117
 C        -1.290944         2.063310         0.272159
 C         0.093211         1.526646         0.437719
 C         0.153282         0.020867         0.186796
 O        -0.120432        -0.499111        -0.869646
 C        -1.666271         3.388471         0.995188
 H        -3.828735         5.310983         0.862182
 H        -3.654022         3.020720         0.118701
 H        -2.559048         2.867969         3.066013
 H        -1.718173         0.474913         1.903359
 H        -3.159689         0.721073         0.830883
 H        -1.600165         1.851671        -0.720019
 H         0.742033         1.892799        -0.340196
 H         0.568076         1.798885         1.454527
 H         0.320328        -0.560513         1.104310
 H        -1.011601         4.296315         1.014891
