19
Iteration:  1739
 O        -3.297557         4.738444         0.557933
 C        -3.241130         3.322750         0.926068
 C        -2.317297         2.973399         2.107284
 C        -2.285842         1.521884         2.429827
 C        -1.685552         1.171538         1.028839
 C        -0.352262         0.455963         0.980714
 C         0.429573         0.535817        -0.328906
 O        -0.063070         0.911477        -1.356707
 C        -1.834461         2.685195         0.676282
 H        -3.569194         4.621372        -0.390594
 H        -4.166028         2.682038         0.739735
 H        -2.096557         3.828752         2.736674
 H        -1.720690         1.094683         3.363850
 H        -3.227816         0.997242         2.516910
 H        -2.471535         0.568646         0.372956
 H         0.366157         0.889592         1.653330
 H        -0.530636        -0.618691         1.269613
 H         1.447769         0.018118        -0.099382
 H        -1.145131         3.151744        -0.057608
