19
Iteration:  4377charge 0 multiplicity 1
 O        -3.485082         4.641096         2.315435
 C        -2.605865         4.126769         1.206319
 C        -3.083956         2.841509         0.731655
 C        -2.298522         2.372853        -0.494589
 C        -1.035807         2.234210         0.365423
 C        -0.630828         0.856119         0.874689
 C         0.040020        -0.088451        -0.122310
 O         0.250101        -1.305112        -0.008804
 C        -1.841364         2.838667         1.567157
 H        -2.941704         5.111817         2.996436
 H        -2.234602         4.891413         0.560586
 H        -4.128404         2.589690         0.985497
 H        -2.634430         1.455656        -1.126011
 H        -2.140472         3.023294        -1.345941
 H         0.012044         2.645756         0.063680
 H         0.007827         0.966413         1.766853
 H        -1.577296         0.334679         1.246196
 H         0.512769         0.432662        -1.001798
 H        -1.965824         2.541605         2.658150
