19
Iteration:  1299
 O        -3.434835         4.773907         1.736026
 C        -3.211740         3.604613         0.984338
 C        -2.698097         2.519536         1.854989
 C        -2.650751         1.212729         1.123351
 C        -1.486589         1.854011         0.121683
 C        -0.073258         1.538986         0.446635
 C         0.585929         0.275469        -0.078407
 O         0.026246        -0.684549        -0.495163
 C        -1.755736         3.252084         0.973009
 H        -3.568762         5.429258         0.985868
 H        -3.793850         3.523773         0.049448
 H        -2.942499         2.567060         2.904417
 H        -2.183600         0.308494         1.588532
 H        -3.584744         0.921137         0.660454
 H        -1.588436         2.058344        -0.914638
 H         0.493371         2.421807         0.127080
 H         0.070764         1.595130         1.518594
 H         1.775740         0.238085        -0.101910
 H        -0.991379         3.984725         1.444945
