19
Iteration:  3103
 O        -3.167301         4.660085         0.522260
 C        -3.102874         3.270090         0.913820
 C        -2.261432         3.036153         2.181472
 C        -2.243687         1.503654         2.545717
 C        -1.939454         1.099343         0.965433
 C        -0.626064         0.310592         0.801424
 C        -0.171732         0.412281        -0.640706
 O         0.544611         1.314519        -0.996150
 C        -1.873106         2.599702         0.690056
 H        -2.795905         4.617941        -0.338240
 H        -4.075344         2.815273         0.863140
 H        -1.852046         3.950420         2.756023
 H        -1.242152         1.340401         3.046959
 H        -2.921621         0.986090         3.229330
 H        -2.817042         0.706280         0.469945
 H         0.245227         0.837445         1.400996
 H        -0.684339        -0.834751         1.217697
 H        -0.650949        -0.162052        -1.505626
 H        -0.934658         3.002944         0.132519
