19
Iteration:   214charge 0 multiplicity 1
 O        -3.504066         4.862194         1.873272
 C        -2.891916         4.004100         0.969918
 C        -3.077401         2.435088         1.216545
 C        -2.566218         1.576931        -0.062147
 C        -1.046499         2.270797         0.442720
 C        -0.362141         0.998467         1.070668
 C         0.423695        -0.038166         0.249364
 O         0.070374        -0.819491        -0.598145
 C        -1.746439         3.204729         1.380163
 H        -3.067220         4.810665         2.716563
 H        -2.998368         4.267292        -0.152022
 H        -3.804230         2.124844         1.919983
 H        -2.625242         0.475475        -0.060292
 H        -2.891276         1.968784        -0.961686
 H        -0.248367         2.753579        -0.257298
 H         0.405245         1.227911         1.889167
 H        -1.129381         0.415851         1.611850
 H         1.454262        -0.078191         0.597846
 H        -1.288243         3.504282         2.301902
