19
Iteration:  1259
 O        -3.538141         4.861743         1.607507
 C        -3.320593         3.566194         1.014932
 C        -2.745313         2.440574         1.857675
 C        -2.495942         1.195230         1.063985
 C        -1.335866         1.928697         0.209568
 C         0.115871         1.470275         0.660239
 C         0.537051         0.313679        -0.293653
 O        -0.125478        -0.686303        -0.473894
 C        -1.769713         3.266121         1.048922
 H        -3.087672         5.528520         1.096922
 H        -3.921651         3.361599         0.084425
 H        -2.687645         2.590846         2.965080
 H        -2.153700         0.444015         1.846324
 H        -3.371386         0.817018         0.574713
 H        -1.490256         1.613533        -0.872044
 H         0.878079         2.344606         0.499602
 H         0.062627         1.084022         1.689581
 H         1.428175         0.664033        -0.858935
 H        -1.207477         4.146677         1.318135
