19
Iteration:  1461
 O        -3.789061         4.779777         1.421727
 C        -3.254909         3.525466         0.972057
 C        -2.670083         2.598412         2.021530
 C        -2.248389         1.263153         1.438150
 C        -1.283878         1.992897         0.363826
 C         0.126927         1.421636         0.488096
 C         0.369074        -0.009126         0.019751
 O        -0.169923        -0.518110        -0.974372
 C        -1.723517         3.370633         1.026529
 H        -3.400038         5.368528         0.762177
 H        -3.823141         3.063789         0.177975
 H        -2.682515         2.860415         3.121196
 H        -1.718434         0.733035         2.192022
 H        -2.827567         0.352633         1.106445
 H        -1.685856         1.917008        -0.687100
 H         0.986956         1.994591         0.067287
 H         0.696099         1.393374         1.499877
 H         0.876124        -0.653074         0.799625
 H        -1.213176         4.406759         1.042715
