19
Iteration:  2646
 O        -3.583270         4.358447         0.441693
 C        -3.215676         3.075798         0.948664
 C        -2.196962         3.055152         2.099435
 C        -2.055996         1.551249         2.465909
 C        -1.612861         1.216516         0.993803
 C        -0.088250         0.903408         1.042879
 C         0.394492         0.900218        -0.357399
 O        -0.387657         0.630278        -1.255713
 C        -1.804594         2.694116         0.626670
 H        -3.822080         4.175043        -0.477836
 H        -4.069204         2.402131         1.064705
 H        -2.101400         3.925842         2.889498
 H        -1.429926         1.307064         3.293774
 H        -3.023531         0.936783         2.909931
 H        -2.261619         0.500340         0.436924
 H         0.631984         1.559365         1.730335
 H         0.009714        -0.139225         1.302633
 H         1.437818         1.195399        -0.592909
 H        -1.224076         3.168510        -0.207789
