19
Iteration:  4686
 O        -2.894576         4.940328         2.196977
 C        -2.265134         4.007009         1.240247
 C        -3.190056         3.104056         0.501102
 C        -2.427687         2.298010        -0.528682
 C        -1.472596         1.860100         0.556674
 C        -1.089594         0.376272         1.063062
 C         0.000361        -0.433107         0.404397
 O         0.794105        -0.252178        -0.567498
 C        -2.352460         2.480801         1.617898
 H        -2.314056         4.899842         3.013761
 H        -1.457275         4.498015         0.675178
 H        -4.270648         3.321567         0.341508
 H        -3.080438         1.430955        -0.850187
 H        -2.029359         2.879441        -1.427320
 H        -0.530314         2.328139         0.508824
 H        -0.890315         0.418821         2.131270
 H        -1.911720        -0.346545         0.971610
 H         0.042504        -1.457543         0.886749
 H        -2.679361         2.294373         2.645638
