19
Iteration:  3831charge 0 multiplicity 1
 O        -3.184131         4.973955         1.864535
 C        -2.896293         3.944134         0.938498
 C        -3.024395         2.530547         1.577122
 C        -3.058162         1.565061         0.573674
 C        -1.540184         1.891465         0.282635
 C        -0.485880         0.875741         0.826424
 C        -0.087995        -0.138351        -0.255537
 O         1.108793        -0.439211        -0.515082
 C        -1.654189         3.093379         1.361047
 H        -2.619755         5.737530         1.498825
 H        -3.086807         4.048513        -0.160471
 H        -3.503382         2.550726         2.486473
 H        -3.298490         0.477717         0.774755
 H        -3.962120         1.780459        -0.068610
 H        -1.275154         2.310389        -0.650966
 H         0.447396         1.359803         1.263922
 H        -1.084081         0.460661         1.726596
 H        -0.941558        -0.228388        -0.943200
 H        -0.792578         3.384480         2.062391
