19
Iteration:  2545
 O        -3.752006         4.242263         0.386123
 C        -3.283557         3.080618         0.952569
 C        -2.318948         3.113761         2.109976
 C        -1.928507         1.784065         2.654391
 C        -1.555074         1.247428         1.185165
 C        -0.206090         0.599388         1.002360
 C         0.255447         0.389994        -0.487586
 O         0.022191         1.175725        -1.395200
 C        -1.887896         2.705069         0.670690
 H        -3.717623         3.979569        -0.554397
 H        -4.080821         2.384758         1.088845
 H        -2.070335         4.057466         2.461968
 H        -0.952232         1.642502         3.192047
 H        -2.748129         1.225074         3.060157
 H        -2.309088         0.694865         0.699390
 H         0.665076         1.215009         1.399951
 H        -0.046280        -0.277534         1.617107
 H         1.000223        -0.413473        -0.741834
 H        -1.311956         3.382807         0.033446
