19
Iteration:  2970charge 0 multiplicity 1
 O        -3.688176         4.819266         1.047674
 C        -3.397208         3.442793         1.099935
 C        -2.358383         3.090855         2.143443
 C        -2.240721         1.523926         2.433534
 C        -1.829993         1.338273         0.803479
 C        -0.493283         0.675368         0.570428
 C         0.033672         0.298537        -0.842678
 O         1.229115         0.179500        -1.064337
 C        -1.980767         2.971952         0.655590
 H        -3.613049         5.062688         0.135684
 H        -4.324016         2.883517         1.159889
 H        -2.067667         3.779723         2.956726
 H        -1.336710         1.350162         3.016870
 H        -3.202678         1.025136         2.788520
 H        -2.730374         0.817037         0.330245
 H         0.325413         1.298318         1.094262
 H        -0.578442        -0.199514         1.041824
 H        -0.750617        -0.144783        -1.466332
 H        -1.472065         3.652005         0.029388
