19
Iteration:   216charge 0 multiplicity 1
 O        -3.488691         4.844633         1.861518
 C        -2.893620         4.009389         0.951663
 C        -3.072061         2.443871         1.217198
 C        -2.575679         1.590206        -0.065721
 C        -1.047333         2.283421         0.455448
 C        -0.367602         1.007908         1.074689
 C         0.413610        -0.037001         0.245645
 O         0.068619        -0.813822        -0.596839
 C        -1.747991         3.180786         1.387895
 H        -3.089877         4.728780         2.751645
 H        -3.022259         4.170170        -0.145512
 H        -3.717730         2.078363         1.975665
 H        -2.574996         0.534920         0.022359
 H        -2.929908         1.969593        -1.080291
 H        -0.337683         2.796727        -0.256008
 H         0.451313         1.186213         1.934656
 H        -1.155480         0.415067         1.655860
 H         1.494103        -0.088578         0.598281
 H        -1.243423         3.550629         2.320156
