19
Iteration:  4759charge 0 multiplicity 1
 O        -3.110829         4.869412         1.947806
 C        -2.192727         4.067150         1.265097
 C        -2.927131         3.030128         0.435303
 C        -2.081494         2.160323        -0.373837
 C        -1.348340         1.681388         0.898169
 C        -1.260130         0.226978         1.031799
 C         0.061213        -0.237546         0.401314
 O         0.301835        -0.022721        -0.785124
 C        -2.241750         2.563884         1.753948
 H        -2.565528         5.062958         2.752062
 H        -1.266602         4.648176         0.994212
 H        -3.948501         3.326423         0.119703
 H        -2.817568         1.334920        -0.610741
 H        -1.474345         2.442973        -1.207247
 H        -0.244023         2.042521         1.022836
 H        -1.156362        -0.004717         2.104462
 H        -2.203039        -0.305925         0.672927
 H         0.824665        -0.672546         1.146746
 H        -2.636989         2.268891         2.673335
