19
Iteration:  3773charge 0 multiplicity 1
 O        -3.178243         4.903724         2.021156
 C        -3.013164         3.967781         1.023162
 C        -3.200095         2.555671         1.550415
 C        -2.837198         1.449794         0.447386
 C        -1.446283         2.133411         0.217387
 C        -0.187860         1.226276         0.449057
 C        -0.128997        -0.156095        -0.247711
 O         0.905561        -0.814004        -0.258143
 C        -1.796956         3.142992         1.321967
 H        -2.579842         5.624484         2.019059
 H        -3.519719         4.166416         0.023395
 H        -3.428743         2.365261         2.638389
 H        -2.559608         0.494626         1.082140
 H        -3.578431         1.290553        -0.372531
 H        -1.326694         2.667782        -0.652551
 H         0.650087         1.863766         0.360498
 H        -0.232889         1.049858         1.570428
 H        -0.987739        -0.683030        -0.744097
 H        -1.047535         3.458778         1.961288
