19
Iteration:  2848charge 0 multiplicity 1
 O        -3.631636         4.707614         0.996419
 C        -3.498355         3.316394         1.081566
 C        -2.585528         2.957718         2.217588
 C        -2.164524         1.497928         2.324617
 C        -1.634368         1.453727         0.805780
 C        -0.230435         1.140445         0.555209
 C         0.208905         0.691726        -0.803049
 O         0.756989        -0.378429        -1.030376
 C        -1.994919         2.987105         0.804712
 H        -3.524612         5.105641         0.147174
 H        -4.173676         2.595191         0.716388
 H        -2.603579         3.699621         3.112567
 H        -1.342914         1.480696         2.977895
 H        -3.014407         0.701509         2.381709
 H        -2.254569         0.809921         0.139091
 H         0.567169         2.019104         0.654603
 H         0.299757         0.345769         1.211657
 H        -0.184051         1.303710        -1.656450
 H        -1.301266         3.710593         0.214920
