19
Iteration:   684
 O        -3.257472         5.025821         1.432557
 C        -2.878983         3.887962         0.867126
 C        -3.256448         2.622235         1.585206
 C        -3.023249         1.361619         0.784192
 C        -1.486389         1.761890         0.568152
 C        -0.281743         0.854245         1.110790
 C         0.048813         0.043774        -0.224491
 O         1.089003        -0.213111        -0.807956
 C        -1.767651         2.965090         1.468152
 H        -2.433966         5.497667         1.729664
 H        -3.015927         3.804340        -0.171282
 H        -4.169708         2.601558         2.215914
 H        -3.197666         0.472666         1.367990
 H        -3.641772         1.367962        -0.184218
 H        -1.291147         2.123266        -0.527851
 H         0.574258         1.414265         1.380166
 H        -0.543942         0.267141         1.962426
 H        -0.891004        -0.303257        -0.740042
 H        -1.236231         3.383694         2.271406
