19
Iteration:  3057
 O        -3.217961         4.676572         0.709396
 C        -3.200268         3.318736         1.000620
 C        -2.215859         2.992660         2.103142
 C        -2.429445         1.576268         2.496259
 C        -2.000422         1.092217         1.013121
 C        -0.419850         0.501387         0.848242
 C        -0.167253         0.557994        -0.615978
 O         0.825089         0.933831        -1.210179
 C        -1.892868         2.591825         0.634601
 H        -3.570426         4.943463        -0.160025
 H        -4.186771         2.809693         0.852208
 H        -1.848801         3.767073         2.677275
 H        -1.761234         1.151639         3.107640
 H        -3.427570         1.359824         2.955584
 H        -2.673073         0.450784         0.458574
 H         0.301061         1.093353         1.559809
 H        -0.643073        -0.594556         1.338501
 H        -1.030535         0.284781        -1.305797
 H        -1.254017         3.017278        -0.055721
