19
Iteration:  1325
 O        -3.579847         4.783722         1.809687
 C        -3.102944         3.704073         1.013851
 C        -2.788880         2.520435         1.867401
 C        -2.580969         1.196841         1.109804
 C        -1.499326         1.811343         0.150819
 C        -0.037411         1.601858         0.315476
 C         0.539054         0.190425         0.115209
 O         0.058321        -0.714081        -0.576939
 C        -1.731410         3.266150         0.896313
 H        -3.270806         5.569600         1.274648
 H        -3.723249         3.653938         0.028743
 H        -2.772232         2.516594         2.995282
 H        -2.118875         0.322044         1.648623
 H        -3.418605         0.858402         0.484340
 H        -1.799820         1.856800        -0.975788
 H         0.516572         2.362337        -0.433647
 H         0.314448         1.887121         1.326115
 H         1.616380        -0.029054         0.615862
 H        -0.917358         3.961460         0.911752
