19
Iteration:  1607charge 0 multiplicity 1
 O        -3.627241         4.772219         1.065079
 C        -3.113865         3.472475         0.788103
 C        -2.587174         2.850051         2.178458
 C        -2.396211         1.381228         2.040275
 C        -1.596338         1.552195         0.719671
 C        -0.134278         1.049627         0.770228
 C         0.520504         0.429556        -0.394882
 O        -0.031079        -0.218995        -1.236457
 C        -1.683288         3.055627         1.002284
 H        -3.662270         5.255229         0.194870
 H        -3.488150         2.872851        -0.062498
 H        -2.892128         3.424650         3.050316
 H        -1.680047         0.905504         2.786193
 H        -3.177070         0.731921         1.771144
 H        -2.125005         1.605998        -0.220483
 H         0.346666         1.924683         1.188039
 H        -0.040421         0.256882         1.634229
 H         1.635809         0.489333        -0.496139
 H        -0.836643         3.778535         0.832541
