19
Iteration:  4076
 O        -3.152360         5.076136         1.870939
 C        -2.707387         4.035227         0.946418
 C        -3.251917         2.538025         1.248460
 C        -2.822325         1.582968         0.161468
 C        -1.264772         1.883913         0.493459
 C        -0.430465         0.710707         1.173272
 C         0.268199        -0.277490         0.164996
 O         0.334211        -0.174322        -1.009575
 C        -1.789317         2.911276         1.575966
 H        -2.390752         5.638762         2.094251
 H        -2.669770         4.234602        -0.101259
 H        -3.984299         2.326754         1.987262
 H        -3.041773         0.578093         0.395320
 H        -3.180316         1.870816        -0.915762
 H        -0.683058         2.279821        -0.289995
 H         0.406691         1.211154         1.765788
 H        -1.046544         0.224357         1.981821
 H         0.796003        -1.082377         0.725216
 H        -1.458303         3.269802         2.611174
