19
Iteration:   498charge 0 multiplicity 1
 O        -3.438113         5.023213         1.724566
 C        -3.041177         3.870247         0.916669
 C        -3.143624         2.531971         1.453845
 C        -2.824812         1.459232         0.381610
 C        -1.225802         1.991804         0.394111
 C        -0.299091         0.958579         1.057262
 C         0.233772        -0.229708         0.220821
 O         0.635372        -0.335402        -0.914034
 C        -1.711098         3.072638         1.434330
 H        -2.691732         5.643473         1.516369
 H        -3.123175         4.058124        -0.128222
 H        -3.751546         2.321581         2.351586
 H        -3.028352         0.470032         0.796193
 H        -3.124878         1.712868        -0.647968
 H        -0.799191         2.191534        -0.548500
 H         0.691230         1.479301         1.295455
 H        -0.629377         0.589207         2.140367
 H         0.235340        -1.159766         0.823850
 H        -1.110009         3.423416         2.334206
