19
Iteration:  3490
 O        -3.544961         4.813290         1.583949
 C        -3.111888         3.525694         1.005194
 C        -2.702401         2.598762         1.985942
 C        -2.399346         1.205214         1.246891
 C        -1.318845         1.956874         0.435626
 C         0.139373         1.429194         0.639010
 C         0.282069        -0.091565        -0.039772
 O        -0.377042        -0.365807        -1.063300
 C        -1.597322         3.301204         0.982199
 H        -3.145095         5.473675         1.019478
 H        -3.670493         3.100629         0.148179
 H        -2.946225         2.752670         2.990622
 H        -2.004756         0.379621         1.922586
 H        -3.263106         0.875840         0.638565
 H        -1.339317         1.913079        -0.606473
 H         0.774934         2.064868        -0.003799
 H         0.534931         1.567704         1.567989
 H         0.852049        -0.821661         0.569619
 H        -0.890436         4.013500         1.563951
