19
Iteration:   370
 O        -3.553954         4.779153         1.412791
 C        -2.718778         3.808870         0.940421
 C        -3.187829         2.443815         1.260247
 C        -2.434287         1.591217         0.224228
 C        -1.032018         2.113767         0.717999
 C        -0.022739         1.053911         1.202114
 C         0.370590         0.082407         0.072099
 O        -0.317519        -0.432710        -0.780573
 C        -1.762153         2.922015         1.695949
 H        -3.059078         5.291290         2.080463
 H        -2.381748         4.069780        -0.128568
 H        -4.158705         2.187832         1.814835
 H        -2.606014         0.565944         0.432743
 H        -2.798188         1.755817        -0.785910
 H        -0.512675         2.781208        -0.081930
 H         0.915264         1.601198         1.525635
 H        -0.372537         0.572271         2.076350
 H         1.354722        -0.415166         0.203937
 H        -1.341002         3.433688         2.594647
