19
Iteration:  4121charge 0 multiplicity 1
 O        -3.189925         4.774064         1.929513
 C        -2.622628         3.975376         1.006892
 C        -3.259455         2.579892         1.120922
 C        -2.749971         1.664017         0.031973
 C        -1.150078         2.113033         0.425798
 C        -0.281588         0.926808         1.098370
 C         0.415590        -0.086894         0.244789
 O        -0.068320        -0.452612        -0.834384
 C        -1.843015         2.857737         1.583154
 H        -2.461698         5.395048         2.179038
 H        -2.153020         4.373163         0.144025
 H        -4.160295         2.510447         1.760138
 H        -3.062873         0.672631         0.071068
 H        -3.100987         2.097909        -0.992473
 H        -0.606307         2.660162        -0.286225
 H         0.336306         1.486318         1.805903
 H        -1.042617         0.334285         1.654397
 H         1.462164        -0.468073         0.532903
 H        -1.516542         3.012246         2.678939
