19
Iteration:  4251charge 0 multiplicity 1
 O        -3.570817         4.546440         2.004508
 C        -2.659217         3.974474         1.082855
 C        -3.033121         2.543239         0.860278
 C        -2.011594         2.029898        -0.241353
 C        -0.833503         2.336357         0.773617
 C        -0.063422         1.064088         1.004606
 C        -0.072229         0.059654        -0.314975
 O        -0.516382        -1.049660        -0.272866
 C        -1.851772         2.941233         1.693841
 H        -3.145975         5.308983         2.372049
 H        -2.373648         4.685259         0.263401
 H        -3.933989         1.954356         1.173770
 H        -2.167480         1.016146        -0.433215
 H        -2.015106         2.562321        -1.210424
 H        -0.105693         3.118116         0.303041
 H         0.929659         1.344985         1.304801
 H        -0.394965         0.621326         1.919101
 H         0.273976         0.562960        -1.296963
 H        -1.728706         3.039419         2.830100
