19
Iteration:  4102
 O        -3.138435         4.910998         1.880434
 C        -2.643937         3.924510         1.010752
 C        -3.224380         2.563521         1.193364
 C        -2.753472         1.657569         0.031704
 C        -1.301867         2.001418         0.483056
 C        -0.430455         0.894648         1.065536
 C         0.321993        -0.043755         0.261889
 O         0.124941        -0.369221        -0.926710
 C        -1.749734         2.824136         1.612107
 H        -2.415144         5.452266         2.212556
 H        -2.525867         4.218528        -0.065885
 H        -4.207538         2.505144         1.760772
 H        -2.853869         0.562179         0.412526
 H        -3.033929         1.819223        -1.066366
 H        -0.727983         2.616166        -0.237259
 H         0.312055         1.416585         1.777002
 H        -0.968914         0.197187         1.787026
 H         1.030219        -0.626895         0.861053
 H        -1.335832         2.894060         2.605047
