19
Iteration:  1885
 O        -3.417576         4.611168         0.625101
 C        -3.133134         3.284355         0.770028
 C        -2.257876         2.997800         2.074638
 C        -2.330641         1.552008         2.534157
 C        -1.782635         1.188307         1.083354
 C        -0.381056         0.587812         1.041859
 C         0.161121         0.239256        -0.482114
 O         0.211226         1.100772        -1.329601
 C        -1.764746         2.693866         0.690773
 H        -3.178616         5.029161        -0.196776
 H        -3.849882         2.456215         0.463255
 H        -2.257731         3.880919         2.745743
 H        -1.541818         1.193640         3.293907
 H        -3.374529         1.084247         2.633813
 H        -2.416393         0.469346         0.454828
 H         0.198500         1.384390         1.484337
 H        -0.218124        -0.343846         1.598561
 H         0.526310        -0.768696        -0.704133
 H        -1.043296         3.331071         0.115453
