19
Iteration:  3526charge 0 multiplicity 1
 O        -3.599175         4.780481         1.718085
 C        -3.059436         3.679360         1.008366
 C        -2.743383         2.492529         1.888309
 C        -2.411012         1.267102         1.056402
 C        -1.291345         2.116605         0.251888
 C         0.047570         1.446127         0.405655
 C         0.359967        -0.070376        -0.005077
 O        -0.336222        -0.650100        -0.851684
 C        -1.550469         3.359762         1.224458
 H        -3.600557         5.495846         1.109036
 H        -3.552106         3.502470         0.066236
 H        -3.084861         2.731519         2.949755
 H        -1.869672         0.497052         1.670281
 H        -3.244153         0.737140         0.656515
 H        -1.634714         2.320507        -0.693381
 H         0.754569         2.103370        -0.105605
 H         0.256580         1.483263         1.439104
 H         1.149831        -0.673652         0.517677
 H        -0.777795         3.797781         1.778235
