19
Iteration:  2631charge 0 multiplicity 1
 O        -3.551245         4.341150         0.452886
 C        -3.195972         3.088248         0.962437
 C        -2.237907         3.027480         2.037317
 C        -2.105060         1.586607         2.457477
 C        -1.522010         1.215107         1.141779
 C        -0.062193         0.863213         1.056858
 C         0.382642         0.868368        -0.381732
 O        -0.452647         0.766360        -1.263221
 C        -1.850886         2.601018         0.591914
 H        -3.660975         4.263800        -0.546319
 H        -4.066755         2.267990         0.807243
 H        -1.823401         3.869814         2.410954
 H        -1.329244         1.340247         3.344150
 H        -2.980893         1.046845         2.647360
 H        -1.969025         0.345842         0.496458
 H         0.341069         1.657890         1.579018
 H         0.109423        -0.080629         1.596191
 H         1.523509         0.906228        -0.543049
 H        -1.335257         3.272391        -0.050423
