19
Iteration:   196charge 0 multiplicity 1
 O        -3.581622         4.910414         1.934533
 C        -2.952509         3.979588         0.950272
 C        -3.117609         2.503235         1.124073
 C        -2.475373         1.744361         0.011645
 C        -1.095562         2.048388         0.298813
 C        -0.334584         0.985817         1.092565
 C         0.502857        -0.043466         0.254324
 O         0.053963        -0.796898        -0.571273
 C        -1.688673         3.093729         1.452978
 H        -2.867209         5.257460         2.458559
 H        -2.899723         4.373816        -0.053034
 H        -3.845954         2.106050         1.829481
 H        -2.573078         0.682081         0.125308
 H        -2.847025         2.065073        -1.072759
 H        -0.718256         2.447504        -0.600179
 H         0.380082         1.438389         1.858463
 H        -1.063636         0.407068         1.730774
 H         1.645156        -0.075428         0.475714
 H        -1.168339         3.316181         2.438515
