19
Iteration:  2702charge 0 multiplicity 1
 O        -3.723121         4.467490         0.721858
 C        -3.354719         3.122069         0.925540
 C        -2.481496         3.062128         2.100684
 C        -2.124180         1.730700         2.620721
 C        -1.580082         1.355762         1.058346
 C        -0.133962         0.780545         0.927316
 C         0.524775         0.797991        -0.581630
 O         0.054969         0.171885        -1.506521
 C        -1.853608         2.859569         0.722765
 H        -3.593827         4.612601        -0.267257
 H        -4.154930         2.463826         0.660474
 H        -2.016176         3.962971         2.717585
 H        -1.369552         1.725423         3.345057
 H        -2.982178         1.144848         3.167037
 H        -2.209652         0.696924         0.435889
 H         0.578791         1.511302         1.545734
 H        -0.227188        -0.213819         1.258813
 H         1.508346         1.406067        -0.626485
 H        -1.146425         3.544989         0.197179
