19
Iteration:  3136
 O        -3.187082         4.629495         0.553836
 C        -3.099410         3.210095         0.834933
 C        -2.095502         2.997470         2.091027
 C        -2.269665         1.541227         2.581070
 C        -1.888724         1.156578         1.028867
 C        -0.682341         0.145445         0.756926
 C        -0.070172         0.394906        -0.546372
 O         0.310820         1.479166        -0.981370
 C        -1.707789         2.642661         0.681718
 H        -3.014963         4.892943        -0.374467
 H        -4.006498         2.632339         0.650961
 H        -1.992969         4.038744         2.589348
 H        -1.435139         1.254940         3.126933
 H        -3.196610         1.185431         2.983088
 H        -2.709884         0.747259         0.478890
 H        -0.055842         0.358665         1.691808
 H        -1.290118        -0.847655         0.912861
 H         0.014159        -0.496829        -1.213566
 H        -0.838919         3.075409         0.037224
