19
Iteration:  4797
 O        -3.233141         4.883437         1.842156
 C        -2.235571         4.051685         1.257734
 C        -2.833774         2.965130         0.443530
 C        -1.760981         2.198819        -0.359104
 C        -1.206505         1.731668         1.016811
 C        -1.204266         0.221155         1.148334
 C        -0.012259        -0.258779         0.311372
 O         0.000076         0.005530        -0.881529
 C        -2.267058         2.533425         1.855096
 H        -2.922692         5.255674         2.654031
 H        -1.234285         4.574988         1.106822
 H        -3.830836         2.939619         0.030847
 H        -2.071736         1.385559        -0.978828
 H        -1.071542         2.835145        -1.034280
 H        -0.262532         2.053608         1.292990
 H        -0.960465         0.017198         2.202310
 H        -2.145020        -0.227921         0.923910
 H         0.923160        -0.882478         0.755439
 H        -2.780841         2.107494         2.800556
