19
Iteration:  4849
 O        -3.397312         4.881395         1.903340
 C        -2.434555         3.999062         1.385053
 C        -2.817154         3.010236         0.289329
 C        -1.439641         2.429978        -0.301278
 C        -1.040898         1.835431         1.113143
 C        -0.779675         0.414201         1.317491
 C        -0.209137        -0.394364         0.191441
 O        -0.195436        -0.313238        -0.991098
 C        -2.363418         2.536390         1.671252
 H        -3.159347         5.049240         2.823386
 H        -1.368271         4.430125         1.197485
 H        -3.750513         3.043598        -0.236994
 H        -1.685421         1.617594        -0.972078
 H        -0.614729         3.126012        -0.561775
 H        -0.218158         2.540196         1.594403
 H        -0.308743         0.114430         2.241910
 H        -1.834252        -0.085795         1.390577
 H         0.123559        -1.378540         0.640112
 H        -3.026185         2.072945         2.492308
