19
Iteration:   884
 O        -3.504444         4.811760         1.955475
 C        -3.210374         3.839928         0.983915
 C        -3.039639         2.513796         1.614185
 C        -2.696319         1.502286         0.559303
 C        -1.335295         2.239090         0.136569
 C        -0.031352         1.375836         0.293197
 C        -0.093902        -0.167564        -0.204985
 O         0.909605        -0.863491        -0.078563
 C        -1.730847         3.139376         1.315233
 H        -3.307063         5.665670         1.500762
 H        -3.572622         4.012645         0.008335
 H        -3.561891         2.273757         2.528162
 H        -2.455210         0.492874         1.005226
 H        -3.434899         1.365531        -0.323084
 H        -1.462319         2.876369        -0.771292
 H         0.825283         1.950033         0.036486
 H         0.028975         1.143041         1.344422
 H        -1.112137        -0.552675        -0.291799
 H        -1.079699         3.851838         1.806385
