19
Iteration:  1013charge 0 multiplicity 1
 O        -3.476067         4.693915         1.863505
 C        -3.083095         3.732422         0.996084
 C        -2.915192         2.450418         1.729619
 C        -2.676012         1.333505         0.767427
 C        -1.394211         2.070647         0.124898
 C        -0.031611         1.429923         0.451374
 C         0.340928         0.287342        -0.357783
 O         0.246325        -0.835751        -0.004796
 C        -1.752617         3.261935         1.027986
 H        -3.068203         5.544602         1.751603
 H        -3.583601         3.636631        -0.062206
 H        -2.976282         2.250070         2.842600
 H        -2.544673         0.419959         1.181834
 H        -3.441530         1.210901         0.023189
 H        -1.587150         2.037354        -0.938066
 H         0.708219         2.206418         0.150008
 H        -0.041040         1.418397         1.566676
 H         0.936638         0.570931        -1.343097
 H        -0.914435         3.743145         1.457303
