19
Iteration:  4383
 O        -3.499621         4.622535         2.263303
 C        -2.530004         4.081160         1.224131
 C        -3.144680         2.846967         0.725853
 C        -2.306512         2.382167        -0.482150
 C        -1.061576         2.215879         0.415636
 C        -0.708196         0.843409         0.888535
 C         0.054585        -0.120638        -0.142470
 O         0.287247        -1.292046        -0.032678
 C        -1.791932         2.909983         1.612954
 H        -2.929414         5.105962         2.847996
 H        -2.134065         4.893514         0.555014
 H        -4.182891         2.648653         0.925808
 H        -2.463880         1.397345        -0.840764
 H        -2.189719         3.185328        -1.265421
 H        -0.241802         2.715405        -0.050656
 H        -0.079395         0.986061         1.781934
 H        -1.621899         0.314391         1.087428
 H         0.483043         0.443839        -1.020222
 H        -1.707703         2.660777         2.628846
