19
Iteration:  4638
 O        -3.092455         4.860362         2.109463
 C        -2.318070         4.148890         1.247782
 C        -3.078475         3.033648         0.658920
 C        -2.438624         2.122422        -0.452499
 C        -1.253501         1.742850         0.523865
 C        -1.265304         0.300781         0.895248
 C        -0.205173        -0.468254         0.173809
 O         0.799282        -0.070809        -0.283505
 C        -1.909817         2.714371         1.638041
 H        -2.601295         5.218843         2.832331
 H        -1.455670         4.724887         0.690834
 H        -4.125583         3.085265         0.876143
 H        -3.300749         1.383485        -0.647173
 H        -2.194903         2.640121        -1.404671
 H        -0.208229         1.783243         0.152403
 H        -1.187584         0.228504         1.974352
 H        -2.261523        -0.188828         0.676885
 H        -0.616354        -1.517048        -0.070232
 H        -2.021165         2.471932         2.717555
