19
Iteration:   275charge 0 multiplicity 1
 O        -3.331141         4.829481         1.832767
 C        -2.857121         3.925161         0.922668
 C        -3.140445         2.477158         1.048253
 C        -2.516415         1.573476         0.026234
 C        -1.024413         2.014349         0.421345
 C        -0.141673         1.080472         1.204151
 C         0.490075         0.103042         0.203339
 O        -0.265160        -0.497962        -0.509475
 C        -1.801410         2.935278         1.473510
 H        -4.276654         4.731764         1.905785
 H        -2.582076         4.339351        -0.024302
 H        -4.052252         2.133956         1.598301
 H        -2.718724         0.452874         0.221773
 H        -2.789501         1.607137        -1.109428
 H        -0.531541         2.498114        -0.378844
 H         0.685930         1.722743         1.619929
 H        -0.618278         0.549985         2.078706
 H         1.602057         0.139172         0.030317
 H        -1.613709         2.798253         2.514714
