19
Iteration:  4829charge 0 multiplicity 1
 O        -3.246402         4.876772         1.855976
 C        -2.342273         4.003108         1.311150
 C        -2.864439         2.905770         0.299345
 C        -1.567957         2.375916        -0.293020
 C        -1.067861         1.931832         1.155236
 C        -0.994325         0.360635         1.248486
 C        -0.097304        -0.431228         0.192115
 O        -0.134004        -0.148869        -0.955585
 C        -2.415090         2.481711         1.779765
 H        -3.037420         5.226100         2.769266
 H        -1.215922         4.237328         1.197546
 H        -3.789587         2.801123        -0.245735
 H        -1.623222         1.511707        -0.904067
 H        -1.074869         3.271034        -0.805941
 H        -0.238105         2.431812         1.653084
 H        -0.528034         0.184086         2.226211
 H        -1.998207        -0.073013         1.340007
 H         0.534061        -1.193348         0.651016
 H        -3.086298         2.018493         2.598552
