19
Iteration:  1696
 O        -3.413151         4.696502         0.851211
 C        -3.171979         3.304040         0.872234
 C        -2.301878         2.991047         2.099619
 C        -2.355172         1.368912         2.283008
 C        -1.749337         1.280908         0.864629
 C        -0.325009         0.892946         0.962415
 C         0.361792         0.347859        -0.250962
 O         0.031563         0.559787        -1.400291
 C        -1.737378         2.813061         0.645627
 H        -3.403837         5.052738        -0.077704
 H        -4.078284         2.711488         0.488392
 H        -2.269700         3.758343         2.886085
 H        -1.769965         1.049408         3.258422
 H        -3.408897         1.083880         2.367628
 H        -2.439261         0.621764         0.127030
 H         0.215636         1.799027         1.355608
 H         0.035035         0.088598         1.732886
 H         1.333032        -0.158670         0.031992
 H        -1.090158         3.516366         0.065333
