19
Iteration:  2256
 O        -3.754620         4.329431         0.469152
 C        -3.170742         3.107102         0.879816
 C        -2.502102         3.070624         2.164536
 C        -2.143367         1.607761         2.562108
 C        -1.449354         1.390479         1.168145
 C        -0.101776         0.696102         0.931759
 C         0.356171         0.913489        -0.484906
 O        -0.190067         0.397271        -1.464331
 C        -1.634407         2.899123         0.828856
 H        -3.465326         4.225927        -0.423189
 H        -3.716310         2.269876         0.551995
 H        -2.702030         3.828681         3.003324
 H        -1.248637         1.549692         3.425627
 H        -2.930178         1.025317         3.073951
 H        -2.077940         0.930562         0.405832
 H         0.678488         0.997238         1.653970
 H        -0.243087        -0.287146         1.177484
 H         1.171907         1.564061        -0.683813
 H        -0.952477         3.651740         0.294789
