19
Iteration:  4414
 O        -3.475152         4.718651         2.130766
 C        -2.495991         4.202444         1.175560
 C        -3.065233         2.824067         0.822576
 C        -2.314752         2.266730        -0.351240
 C        -1.031143         2.065391         0.586672
 C        -0.893580         0.638454         0.816154
 C         0.007907         0.006638        -0.228887
 O         0.432654        -1.150394        -0.083800
 C        -1.827485         2.899768         1.668138
 H        -2.928330         5.427469         2.591595
 H        -2.054363         4.851383         0.357700
 H        -4.079742         2.718770         1.167892
 H        -2.652134         1.296527        -0.631313
 H        -2.329437         2.910847        -1.305654
 H        -0.185822         2.571438         0.166559
 H        -0.543429         0.336146         1.860790
 H        -1.847610         0.112940         0.777698
 H         0.342363         0.662551        -1.101453
 H        -1.913237         2.732806         2.744310
