19
Iteration:  1933
 O        -3.484477         4.736179         0.744967
 C        -3.324654         3.292717         0.979780
 C        -2.348266         2.944001         2.180926
 C        -2.264518         1.441924         2.349952
 C        -1.768295         1.396842         0.829484
 C        -0.235139         0.757444         0.893281
 C         0.113059         0.094778        -0.334952
 O         0.498293         0.716297        -1.338797
 C        -1.888072         2.935947         0.720700
 H        -3.529806         4.761194        -0.252199
 H        -4.130358         2.640378         0.808318
 H        -2.217757         3.779050         2.863070
 H        -1.572670         1.078121         3.004426
 H        -3.248619         1.021952         2.483205
 H        -2.236253         0.657701         0.092781
 H         0.527982         1.486575         0.974899
 H        -0.180653         0.058197         1.694054
 H        -0.086988        -0.955261        -0.450671
 H        -1.271234         3.490987         0.028862
