19
Iteration:   562charge 0 multiplicity 1
 O        -3.190050         5.022756         1.707182
 C        -2.825207         3.936013         0.876650
 C        -3.284996         2.498364         1.444703
 C        -2.784132         1.192394         0.549470
 C        -1.378275         1.911860         0.315601
 C        -0.418321         0.981961         1.091734
 C         0.050444        -0.145576         0.155631
 O         0.806902        -0.062462        -0.814522
 C        -1.831266         2.952196         1.372178
 H        -2.649925         5.749858         1.293232
 H        -2.858991         4.080833        -0.163174
 H        -3.912056         2.625649         2.318042
 H        -2.675232         0.210085         1.142671
 H        -3.516143         0.948012        -0.342864
 H        -1.215499         2.284148        -0.730423
 H         0.495461         1.549092         1.360787
 H        -0.873268         0.795975         2.056507
 H        -0.384019        -1.192870         0.321064
 H        -0.921929         3.256883         2.001572
