19
Iteration:  1293charge 0 multiplicity 1
 O        -3.411539         4.782925         1.707002
 C        -3.212222         3.589691         0.988348
 C        -2.747768         2.460806         1.882038
 C        -2.618416         1.233012         1.121922
 C        -1.491862         1.876564         0.156756
 C        -0.040220         1.557966         0.457432
 C         0.580504         0.315958        -0.122915
 O         0.011140        -0.724184        -0.494662
 C        -1.782938         3.289349         1.000331
 H        -3.494977         5.340425         0.921687
 H        -3.828241         3.499937         0.056791
 H        -2.827747         2.588717         2.994554
 H        -2.216185         0.298216         1.564396
 H        -3.503199         0.894271         0.530615
 H        -1.446636         1.899976        -1.006609
 H         0.681625         2.466130         0.393549
 H        -0.080806         1.475840         1.602220
 H         1.642175         0.209960        -0.218769
 H        -1.099146         4.074856         1.182223
