19
Iteration:  2941charge 0 multiplicity 1
 O        -3.786990         4.726916         1.145179
 C        -3.299849         3.424431         1.070030
 C        -2.374158         3.089011         2.184480
 C        -2.225161         1.551456         2.302777
 C        -1.810240         1.476771         0.701826
 C        -0.458561         0.773060         0.559603
 C         0.011448         0.307447        -0.795937
 O         1.174498        -0.001897        -0.991836
 C        -1.906484         3.062351         0.662744
 H        -4.225662         4.927442         0.275887
 H        -4.155678         2.763133         0.855482
 H        -2.057805         3.670791         2.963790
 H        -1.215250         1.395957         2.870116
 H        -3.038361         0.992060         2.717140
 H        -2.589332         0.947241         0.095085
 H         0.284604         1.418367         0.951228
 H        -0.521969        -0.266295         1.266193
 H        -0.820780         0.129906        -1.559411
 H        -1.401549         3.805873         0.076490
