19
Iteration:  3364
 O        -3.381586         4.872193         1.151266
 C        -3.047857         3.551054         0.941808
 C        -2.789935         2.693320         2.174139
 C        -2.537890         1.352307         1.912043
 C        -1.565260         1.690921         0.695321
 C        -0.176022         0.920742         0.740254
 C         0.459492         0.338376        -0.467470
 O        -0.107554        -0.170664        -1.394885
 C        -1.614873         3.133865         1.118449
 H        -2.754979         5.374339         0.530483
 H        -3.516542         3.004653         0.050370
 H        -2.757456         3.077820         3.166398
 H        -1.861094         1.081384         2.750512
 H        -3.323709         0.459986         1.859823
 H        -1.979484         1.417357        -0.386550
 H         0.473140         1.592262         1.314938
 H        -0.200629         0.074507         1.514806
 H         1.547918         0.293483        -0.366726
 H        -0.875188         3.828545         1.266841
