19
Iteration:  3101charge 0 multiplicity 1
 O        -3.165607         4.663262         0.527850
 C        -3.118138         3.285360         0.908956
 C        -2.247618         3.032057         2.167745
 C        -2.235625         1.499513         2.553280
 C        -1.947255         1.098165         0.961761
 C        -0.611937         0.324899         0.806689
 C        -0.175006         0.403941        -0.652004
 O         0.559561         1.303964        -0.995536
 C        -1.882308         2.607495         0.704248
 H        -2.782351         4.580645        -0.366347
 H        -4.131084         2.799344         0.879720
 H        -1.917403         3.877863         2.755496
 H        -1.363632         1.341021         3.023132
 H        -2.941207         1.030294         3.259281
 H        -2.777698         0.686070         0.444121
 H         0.298716         0.799066         1.373232
 H        -0.632046        -0.818074         1.179294
 H        -0.729001        -0.146570        -1.469760
 H        -1.022814         2.993729         0.174048
