19
Iteration:   491
 O        -3.418464         5.034613         1.735186
 C        -3.005401         3.892172         0.932610
 C        -3.112920         2.498480         1.467391
 C        -2.710781         1.422988         0.357013
 C        -1.229655         1.988877         0.370334
 C        -0.351058         0.993355         1.042919
 C         0.168605        -0.225693         0.251272
 O         0.598517        -0.314589        -0.908710
 C        -1.763975         3.026035         1.440499
 H        -2.898073         5.851060         1.473640
 H        -3.114170         4.047637        -0.209675
 H        -3.769842         2.368258         2.286244
 H        -2.697623         0.468510         0.854925
 H        -3.127293         1.404883        -0.648965
 H        -0.651651         2.415219        -0.541058
 H         0.655905         1.320271         1.233811
 H        -0.690039         0.722308         2.002465
 H         0.481219        -1.113639         0.909525
 H        -1.326211         3.431596         2.278951
