19
Iteration:  3685
 O        -3.547091         4.708305         2.041579
 C        -3.091667         3.834741         1.094359
 C        -2.838844         2.477682         1.666242
 C        -2.453679         1.537378         0.499785
 C        -1.236394         2.263269         0.063321
 C        -0.065950         1.364927         0.257753
 C        -0.067633         0.042056        -0.413063
 O         0.251003        -1.046890         0.080528
 C        -1.595035         3.276528         1.269669
 H        -3.299298         5.586078         1.822493
 H        -3.518478         3.976166         0.043804
 H        -3.066645         2.198930         2.732608
 H        -2.458610         0.391358         0.749231
 H        -3.324527         1.679958        -0.198121
 H        -1.293007         2.565027        -1.048923
 H         0.795756         1.940604        -0.100714
 H         0.152044         1.171771         1.401990
 H        -0.376704         0.158160        -1.424198
 H        -1.007100         3.748060         2.063831
