19
Iteration:  3532
 O        -3.594279         4.748042         1.726222
 C        -3.017218         3.737252         1.058562
 C        -2.790371         2.443895         1.900403
 C        -2.402218         1.302821         1.037662
 C        -1.302655         2.136730         0.244424
 C         0.046821         1.474275         0.419536
 C         0.301941        -0.060235        -0.015066
 O        -0.322582        -0.702017        -0.811990
 C        -1.559388         3.343451         1.184789
 H        -3.550229         5.509595         1.070144
 H        -3.533308         3.560798         0.069481
 H        -3.161778         2.626221         2.861250
 H        -1.807468         0.527828         1.564359
 H        -3.203095         0.678183         0.500222
 H        -1.595768         2.350350        -0.899123
 H         0.770777         2.108457        -0.167099
 H         0.327354         1.565203         1.573413
 H         1.355863        -0.388575         0.357767
 H        -0.605997         3.758598         1.694522
