19
Iteration:  1102
 O        -3.646326         4.685190         1.644769
 C        -3.162612         3.591505         0.942345
 C        -2.798940         2.434490         1.786241
 C        -2.389174         1.204686         0.973226
 C        -1.256404         2.010928         0.312544
 C         0.159628         1.529492         0.597808
 C         0.391199         0.337397        -0.408864
 O        -0.269361        -0.684687        -0.234145
 C        -1.627322         3.291428         1.051621
 H        -3.260470         5.485835         1.282062
 H        -3.783502         3.396188        -0.005944
 H        -3.176000         2.546817         2.857201
 H        -2.137098         0.405299         1.653876
 H        -2.968508         0.855501         0.153119
 H        -1.460963         2.217354        -0.847342
 H         0.962135         2.330431         0.496561
 H         0.175213         1.161798         1.645904
 H         1.105825         0.406880        -1.239760
 H        -0.949159         3.954113         1.606245
