19
Iteration:  3148
 O        -3.208462         4.626582         0.591811
 C        -3.010380         3.280154         0.862371
 C        -2.205239         3.087390         2.075673
 C        -2.276847         1.571500         2.521693
 C        -1.847131         1.138727         1.004141
 C        -0.743783         0.064426         0.832224
 C         0.038210         0.353210        -0.601117
 O         0.215857         1.508019        -0.962482
 C        -1.676591         2.610191         0.669295
 H        -3.248198         4.693114        -0.347616
 H        -3.856531         2.627546         0.752757
 H        -1.622961         3.912255         2.593844
 H        -1.642504         1.200063         3.279655
 H        -3.250343         1.288743         2.855987
 H        -2.688929         0.778919         0.425764
 H         0.149341         0.197940         1.535107
 H        -0.882276        -1.079564         0.871169
 H         0.254893        -0.559663        -1.217861
 H        -0.986909         3.164976        -0.007054
