19
Iteration:  3643charge 0 multiplicity 1
 O        -3.377301         4.680992         2.048501
 C        -3.067321         3.719643         1.030808
 C        -2.753392         2.391691         1.660345
 C        -2.530145         1.364895         0.560809
 C        -1.336031         2.117160         0.064633
 C         0.035429         1.491280         0.432207
 C         0.168302         0.250138        -0.399855
 O        -0.164826        -0.853554         0.056030
 C        -1.638533         3.280198         1.101576
 H        -3.193827         5.565295         1.700725
 H        -3.708300         3.748789         0.126548
 H        -3.064063         2.276877         2.737118
 H        -2.265496         0.263604         0.853314
 H        -3.265106         1.244674        -0.228397
 H        -1.350711         2.404538        -1.076492
 H         0.920494         2.144464         0.221281
 H        -0.060534         1.221690         1.583847
 H         0.705643         0.365745        -1.492946
 H        -0.920218         3.708794         1.747545
