19
Iteration:  2082charge 0 multiplicity 1
 O        -3.926978         4.731486         1.175744
 C        -3.372838         3.381992         1.090977
 C        -2.345084         3.103849         2.172088
 C        -2.164531         1.575593         2.264786
 C        -1.793905         1.529559         0.710691
 C        -0.263152         0.911376         0.611735
 C         0.210675         0.522642        -0.752484
 O         1.007530        -0.350916        -1.036885
 C        -1.950880         3.020991         0.627412
 H        -4.339260         4.953788         0.313008
 H        -4.214151         2.611307         0.926179
 H        -2.312897         3.971621         2.870483
 H        -1.319688         1.084421         2.780968
 H        -3.033733         1.056169         2.500379
 H        -2.550206         0.870525         0.203750
 H         0.480587         1.651661         1.104066
 H        -0.335916        -0.065219         1.206738
 H        -0.321316         1.075091        -1.648734
 H        -1.490100         3.735306         0.012253
