19
Iteration:  4035charge 0 multiplicity 1
 O        -3.122913         4.981435         1.699875
 C        -2.594536         3.892687         0.851978
 C        -3.096857         2.591735         1.385439
 C        -2.843236         1.453129         0.374873
 C        -1.338020         1.859017         0.618929
 C        -0.658307         0.627146         1.183368
 C        -0.006773        -0.242196         0.011741
 O         0.576182         0.133958        -0.972343
 C        -1.727685         2.989795         1.560318
 H        -2.597298         5.822797         1.547427
 H        -2.554555         4.194578        -0.189710
 H        -3.944220         2.613043         2.037715
 H        -3.074476         0.444314         0.778078
 H        -3.343371         1.568181        -0.650516
 H        -0.735169         2.226604        -0.221833
 H         0.278369         0.927247         1.750055
 H        -1.219094        -0.034486         1.902716
 H        -0.036249        -1.372080         0.276168
 H        -1.147666         3.313240         2.495464
