19
Iteration:  4868
 O        -3.551008         4.728659         1.905306
 C        -2.370086         4.067047         1.407262
 C        -2.652941         3.156405         0.278012
 C        -1.461544         2.512349        -0.317937
 C        -0.979694         1.998240         1.118409
 C        -0.776281         0.406912         1.321214
 C        -0.271169        -0.598788         0.191494
 O        -0.246385        -0.366138        -0.967132
 C        -2.327994         2.538804         1.625208
 H        -3.303703         4.900225         2.803653
 H        -1.512633         4.709505         1.422135
 H        -3.678357         3.182625        -0.096170
 H        -1.678651         1.567159        -0.928731
 H        -0.844907         3.255662        -0.803874
 H        -0.020419         2.527746         1.436499
 H        -0.025250         0.335711         2.133363
 H        -1.639661        -0.109783         1.788654
 H         0.148125        -1.621990         0.553754
 H        -2.954876         2.067627         2.398048
