19
Iteration:  4104
 O        -3.144283         4.899508         1.890669
 C        -2.624161         3.909415         0.991563
 C        -3.220293         2.563342         1.182527
 C        -2.773644         1.678258         0.013112
 C        -1.284502         1.992079         0.483250
 C        -0.425424         0.916406         1.062745
 C         0.344856        -0.039645         0.269743
 O         0.101226        -0.379776        -0.923485
 C        -1.762687         2.823812         1.635557
 H        -2.419409         5.484154         2.251357
 H        -2.552656         4.238359        -0.111694
 H        -4.175030         2.454081         1.743905
 H        -2.808715         0.592593         0.439048
 H        -3.114636         1.799549        -0.996501
 H        -0.664378         2.673941        -0.248972
 H         0.313275         1.360325         1.784899
 H        -0.974930         0.252084         1.757443
 H         1.055201        -0.637022         0.874647
 H        -1.345189         2.928681         2.575946
