19
Iteration:  4132charge 0 multiplicity 1
 O        -3.252238         4.819496         1.996441
 C        -2.662962         3.959454         1.008886
 C        -3.238752         2.612055         1.077162
 C        -2.616450         1.681553        -0.038352
 C        -1.218628         2.010126         0.480020
 C        -0.261514         0.952502         1.116374
 C         0.406057        -0.048839         0.165830
 O        -0.143923        -0.514252        -0.783838
 C        -1.773886         2.901874         1.552312
 H        -2.645670         5.512612         2.376464
 H        -2.482974         4.492699         0.093848
 H        -4.199314         2.556429         1.639676
 H        -2.791781         0.658448         0.030524
 H        -2.606762         2.007611        -1.142351
 H        -0.741462         2.598569        -0.269620
 H         0.567235         1.281456         1.761240
 H        -0.805102         0.338349         1.870216
 H         1.482524        -0.346212         0.487042
 H        -1.383003         2.769621         2.619395
