19
Iteration:  3498charge 0 multiplicity 1
 O        -3.579001         4.799085         1.612452
 C        -3.085204         3.592289         1.009564
 C        -2.742909         2.562139         1.994582
 C        -2.402179         1.247055         1.200354
 C        -1.216184         1.956624         0.410984
 C         0.155633         1.434607         0.565364
 C         0.208867        -0.037037        -0.033813
 O        -0.336427        -0.456362        -1.012672
 C        -1.616775         3.293451         1.055003
 H        -3.340848         5.576178         1.074334
 H        -3.767185         3.341759         0.143145
 H        -2.996914         2.719297         3.047405
 H        -2.115560         0.413585         1.810547
 H        -3.349292         0.940372         0.597395
 H        -1.487908         1.849925        -0.754362
 H         0.812983         2.001290        -0.134362
 H         0.654245         1.503527         1.635317
 H         0.988696        -0.792788         0.468818
 H        -0.714619         3.955030         1.298572
