19
Iteration:  3996charge 0 multiplicity 1
 O        -2.997428         5.060386         1.473657
 C        -2.629106         3.875309         0.865405
 C        -3.165185         2.550729         1.517131
 C        -2.960746         1.461892         0.422738
 C        -1.400178         1.721737         0.655663
 C        -0.536311         0.557549         1.175350
 C        -0.116532        -0.213720        -0.120297
 O         0.663062         0.346514        -0.837724
 C        -1.736556         2.852691         1.655267
 H        -2.303852         5.722386         1.572950
 H        -2.506801         4.003312        -0.261539
 H        -4.001395         2.666180         2.289711
 H        -3.199382         0.378395         0.696071
 H        -3.509745         1.542578        -0.538910
 H        -0.836981         2.069840        -0.270423
 H         0.432045         1.058078         1.382933
 H        -0.905168         0.105568         2.084762
 H        -0.484815        -1.184808        -0.439948
 H        -1.101606         3.065595         2.464113
