19
Iteration:  3145
 O        -3.202446         4.627388         0.588059
 C        -3.036217         3.270196         0.846403
 C        -2.181977         3.076430         2.089929
 C        -2.278672         1.562084         2.549568
 C        -1.849483         1.165701         1.004546
 C        -0.747273         0.068935         0.818891
 C         0.028944         0.354450        -0.602536
 O         0.233654         1.515976        -0.966195
 C        -1.677883         2.599528         0.666997
 H        -3.195828         4.765403        -0.390582
 H        -3.919895         2.531967         0.724197
 H        -1.645635         3.980736         2.546803
 H        -1.598770         1.178859         3.231571
 H        -3.283400         1.240562         2.922343
 H        -2.656178         0.760526         0.402663
 H         0.126728         0.240638         1.601455
 H        -0.907783        -1.124610         0.894627
 H         0.143915        -0.587413        -1.163491
 H        -0.967726         3.197166        -0.022765
