19
Iteration:  3521
 O        -3.603486         4.798921         1.715426
 C        -3.070116         3.636304         0.986911
 C        -2.700957         2.564859         1.882715
 C        -2.404765         1.245705         1.088035
 C        -1.315522         2.080182         0.288709
 C         0.068476         1.413071         0.387122
 C         0.356195        -0.062583        -0.021186
 O        -0.333358        -0.606234        -0.867709
 C        -1.577450         3.325954         1.234358
 H        -3.632707         5.593706         1.110414
 H        -3.507595         3.458513        -0.029380
 H        -2.971337         2.595349         2.904522
 H        -1.919585         0.505239         1.749390
 H        -3.326781         0.799029         0.591937
 H        -1.627302         2.326765        -0.820150
 H         0.878345         2.052042        -0.046998
 H         0.326610         1.441015         1.517184
 H         1.042680        -0.736516         0.649043
 H        -0.889542         4.015206         1.859923
