19
Iteration:  4353
 O        -3.396901         4.655301         2.431241
 C        -2.709382         4.036772         1.242280
 C        -3.218370         2.803161         0.565410
 C        -2.228844         2.386060        -0.594194
 C        -1.031958         2.276445         0.447035
 C        -0.411164         0.889672         0.889820
 C         0.100438        -0.073992        -0.183633
 O         0.037231        -1.274723         0.103812
 C        -1.910658         2.852658         1.495722
 H        -2.643596         4.884065         3.039511
 H        -2.330494         4.847861         0.652754
 H        -4.178783         2.305490         0.674641
 H        -2.355789         1.360058        -1.039370
 H        -2.147106         2.944036        -1.507225
 H        -0.067603         2.841533         0.133851
 H         0.443768         1.096756         1.527096
 H        -1.145225         0.263719         1.466580
 H         0.599457         0.294641        -1.113918
 H        -1.838212         2.576862         2.512433
