19
Iteration:  3976charge 0 multiplicity 1
 O        -2.911471         5.078920         1.467831
 C        -2.637415         3.809455         0.907310
 C        -3.341752         2.623854         1.432775
 C        -2.963329         1.429425         0.573074
 C        -1.471807         1.683045         0.725573
 C        -0.492461         0.576752         1.131681
 C        -0.046488        -0.094512        -0.128484
 O         0.772124         0.280704        -0.928206
 C        -1.781444         2.886140         1.630260
 H        -1.999526         5.353443         1.511093
 H        -2.579059         3.785404        -0.185743
 H        -4.170385         2.727654         2.210991
 H        -3.512552         0.530565         0.904857
 H        -3.298560         1.598100        -0.592996
 H        -1.058138         2.045150        -0.168309
 H         0.452806         0.857959         1.724938
 H        -1.065410        -0.187733         1.713656
 H        -0.669143        -1.038200        -0.327579
 H        -1.348290         3.218593         2.514830
