19
Iteration:  2807charge 0 multiplicity 1
 O        -3.763088         4.657459         1.017527
 C        -3.335725         3.279052         0.960115
 C        -2.461318         2.956244         2.132897
 C        -2.153440         1.465909         2.230128
 C        -1.602430         1.432818         0.785255
 C        -0.098971         1.133275         0.734535
 C         0.195378         0.798674        -0.640859
 O         0.468588        -0.302838        -1.080779
 C        -1.840707         2.930748         0.747854
 H        -4.024654         4.745410         0.055747
 H        -4.206170         2.659057         0.690960
 H        -2.311416         3.687415         3.023967
 H        -1.369675         1.443672         3.084592
 H        -3.057404         0.905138         2.376277
 H        -2.184087         0.768508         0.157246
 H         0.292339         2.017095         1.106600
 H         0.205523         0.315022         1.548376
 H         0.033865         1.672142        -1.343891
 H        -1.419603         3.730367         0.099600
