19
Iteration:  3508charge 0 multiplicity 1
 O        -3.595555         4.784187         1.653188
 C        -3.100669         3.698437         0.979296
 C        -2.689930         2.525016         1.957884
 C        -2.416751         1.297274         1.185701
 C        -1.272997         1.958157         0.362173
 C         0.180176         1.377415         0.452453
 C         0.224471         0.015387         0.001193
 O        -0.326589        -0.527297        -0.965880
 C        -1.612797         3.259039         1.167107
 H        -3.493887         5.537510         1.086348
 H        -3.575027         3.438078        -0.006020
 H        -2.929385         2.579033         3.038587
 H        -2.119490         0.474009         1.776019
 H        -3.193058         0.887868         0.446429
 H        -1.522755         2.058953        -0.824126
 H         0.952225         1.959209        -0.111012
 H         0.544399         1.310445         1.609988
 H         1.036914        -0.549920         0.617559
 H        -1.031908         4.203143         1.310370
