19
Iteration:   968
 O        -3.408559         4.823372         1.901377
 C        -3.124044         3.751582         0.990174
 C        -3.024193         2.383591         1.625196
 C        -2.545996         1.284415         0.601828
 C        -1.378062         2.159889         0.113696
 C        -0.086380         1.414570         0.416037
 C         0.011960         0.211440        -0.312972
 O         0.523694        -0.832344         0.069836
 C        -1.758800         3.183254         1.184283
 H        -2.991753         5.632793         1.618005
 H        -3.971082         3.825514         0.196258
 H        -3.255293         2.245475         2.643692
 H        -2.140302         0.447657         1.009867
 H        -3.214628         0.924777        -0.136273
 H        -1.410611         2.716248        -0.815477
 H         0.744298         1.977546        -0.163073
 H         0.330766         1.259385         1.465686
 H        -0.313563         0.220390        -1.346542
 H        -1.072833         3.794130         1.818053
