19
Iteration:   409charge 0 multiplicity 1
 O        -3.456519         4.872650         1.661853
 C        -2.874650         3.855272         0.820993
 C        -3.132713         2.396899         1.209606
 C        -2.457668         1.412174         0.289770
 C        -1.037939         2.041647         0.508481
 C        -0.106525         1.053828         1.262976
 C         0.339630        -0.016378         0.248881
 O        -0.219275        -0.190910        -0.826080
 C        -1.744411         2.969476         1.447028
 H        -2.833218         5.548062         1.971620
 H        -2.886345         4.054027        -0.227811
 H        -3.903609         2.063317         1.922680
 H        -2.432104         0.413670         0.803565
 H        -2.785552         1.229013        -0.761469
 H        -0.517164         2.526219        -0.293729
 H         0.794734         1.435696         1.766983
 H        -0.625385         0.346278         2.062708
 H         1.045830        -0.787458         0.738626
 H        -1.217543         3.304324         2.394492
