19
Iteration:  1314charge 0 multiplicity 1
 O        -3.533586         4.782865         1.784793
 C        -3.118475         3.689893         0.966730
 C        -2.762112         2.503849         1.861548
 C        -2.614050         1.212033         1.052723
 C        -1.596278         1.909937         0.202065
 C        -0.045339         1.508986         0.376285
 C         0.587002         0.257144         0.024758
 O         0.039207        -0.671852        -0.523672
 C        -1.675834         3.174679         0.917435
 H        -3.500918         5.625698         1.306572
 H        -3.893028         3.366077         0.187971
 H        -2.717236         2.750778         2.964927
 H        -2.224538         0.401836         1.741896
 H        -3.469411         0.769637         0.515874
 H        -1.807303         1.739867        -0.926477
 H         0.659449         2.237081        -0.293036
 H         0.251513         1.836211         1.396454
 H         1.756809         0.222669         0.303209
 H        -0.783352         3.765033         1.030471
