19
Iteration:  3611
 O        -3.285038         4.707135         1.964641
 C        -3.045523         3.695365         0.994396
 C        -2.799614         2.273303         1.705852
 C        -2.516035         1.181234         0.644060
 C        -1.398737         2.125613         0.091940
 C         0.100351         1.582377         0.470721
 C         0.313676         0.247756        -0.287195
 O        -0.377159        -0.715226        -0.112915
 C        -1.706689         3.280919         1.067055
 H        -2.773989         5.530111         1.677965
 H        -3.576651         3.766673         0.037791
 H        -2.810059         2.356499         2.825512
 H        -2.153779         0.164488         1.105189
 H        -3.309969         1.053981        -0.045058
 H        -1.499826         2.302524        -1.033237
 H         0.862319         2.393618         0.331270
 H        -0.023616         1.511235         1.626045
 H         1.228944         0.287533        -0.932145
 H        -1.063242         3.689195         1.776238
