19
Iteration:   222
 O        -3.448948         4.810385         1.836922
 C        -2.900421         3.963460         0.897161
 C        -3.065349         2.466241         1.206274
 C        -2.576968         1.688061        -0.061594
 C        -1.054081         2.273787         0.453674
 C        -0.370676         1.028796         1.119198
 C         0.411272        -0.017533         0.253820
 O         0.048542        -0.803356        -0.605171
 C        -1.739018         3.123719         1.444433
 H        -3.177091         4.506320         2.694369
 H        -3.124301         4.151569        -0.169275
 H        -3.562479         1.995023         2.095462
 H        -2.468632         0.584552         0.198006
 H        -2.958790         1.859531        -1.055402
 H        -0.550308         2.858374        -0.340891
 H         0.339198         1.211518         1.836025
 H        -1.137818         0.512025         1.654532
 H         1.482767        -0.081562         0.562193
 H        -1.226238         3.550655         2.274546
