19
Iteration:  3264
 O        -3.061721         4.834472         0.917186
 C        -3.173225         3.429527         0.921495
 C        -2.364171         2.864107         2.155284
 C        -2.504612         1.370641         2.212062
 C        -1.831261         1.196736         0.828038
 C        -0.392898         0.648237         0.930294
 C         0.434240         0.564876        -0.331260
 O        -0.036021         0.584313        -1.469368
 C        -1.805011         2.739611         0.785696
 H        -3.106133         5.117904        -0.009911
 H        -4.096803         2.997717         0.489514
 H        -2.031009         3.506106         3.003722
 H        -1.954465         0.786613         3.050987
 H        -3.571075         0.942169         2.298169
 H        -2.351497         0.753743        -0.083715
 H         0.032147         1.294337         1.657656
 H        -0.502228        -0.244340         1.469905
 H         1.570709         0.488616        -0.190337
 H        -1.105946         3.505645         0.300523
