19
Iteration:  3107
 O        -3.172828         4.646442         0.518041
 C        -3.077457         3.260430         0.936349
 C        -2.289545         3.043257         2.203216
 C        -2.234524         1.515817         2.526503
 C        -1.929283         1.108072         0.994714
 C        -0.649502         0.268110         0.801286
 C        -0.175923         0.426319        -0.623346
 O         0.519813         1.345859        -0.998594
 C        -1.814006         2.582568         0.654228
 H        -2.778709         4.744314        -0.414331
 H        -4.044053         2.765870         0.791600
 H        -1.787404         3.919522         2.663273
 H        -1.105119         1.352642         3.042489
 H        -2.962662         0.908792         3.121478
 H        -2.888381         0.677555         0.509047
 H        -0.008462         0.843216         1.390154
 H        -0.813150        -0.651419         1.201816
 H        -0.481603        -0.246460        -1.467727
 H        -0.951191         2.989683         0.114911
