19
Iteration:  2817
 O        -3.684775         4.653668         0.984890
 C        -3.360700         3.286102         1.033572
 C        -2.508499         2.903826         2.148029
 C        -2.157561         1.458864         2.288968
 C        -1.607656         1.438250         0.804049
 C        -0.144581         1.182121         0.707659
 C         0.211404         0.793062        -0.697075
 O         0.524845        -0.326325        -1.044990
 C        -1.949321         3.019724         0.671237
 H        -3.963865         4.981227         0.078525
 H        -4.076130         2.589648         0.643773
 H        -2.478716         3.638231         3.054420
 H        -1.322920         1.241776         3.016983
 H        -2.773900         0.613880         2.657521
 H        -2.123407         0.851712         0.063516
 H         0.516562         2.011061         0.968324
 H        -0.017805         0.183734         1.405979
 H        -0.163938         1.538846        -1.445266
 H        -1.155244         3.711117         0.228043
