19
Iteration:  1485charge 0 multiplicity 1
 O        -3.708917         4.761363         1.345547
 C        -3.240340         3.510916         0.896509
 C        -2.711425         2.691439         2.056763
 C        -2.336693         1.277921         1.546379
 C        -1.348879         1.842115         0.505105
 C         0.108516         1.453195         0.544756
 C         0.476343         0.067149        -0.113891
 O        -0.216743        -0.443721        -0.994688
 C        -1.685706         3.249838         1.044270
 H        -3.360477         5.384272         0.648318
 H        -3.704829         3.069099         0.068269
 H        -3.054129         3.065999         3.060309
 H        -1.810879         0.655588         2.329514
 H        -3.028469         0.535757         1.163788
 H        -1.798495         1.479720        -0.358471
 H         0.812461         2.061652         0.012871
 H         0.637602         1.549434         1.561872
 H         1.472617        -0.342112         0.144900
 H        -0.849473         3.929231         1.195723
