19
Iteration:  1963
 O        -3.596123         4.746903         0.918408
 C        -3.269185         3.346862         0.932984
 C        -2.425225         2.977623         2.176804
 C        -2.341531         1.528899         2.324637
 C        -1.803579         1.345142         0.875036
 C        -0.229661         0.923140         0.827838
 C         0.092801         0.136244        -0.429478
 O         0.744513         0.423095        -1.405752
 C        -1.846566         2.926270         0.738537
 H        -4.001864         4.967598         0.061458
 H        -4.009138         2.583750         0.582675
 H        -2.327584         3.750798         2.905707
 H        -1.630272         1.122485         3.040684
 H        -3.410214         1.019781         2.543559
 H        -2.346611         0.592822         0.232768
 H         0.410611         1.765576         0.753885
 H         0.151117         0.340571         1.675431
 H        -0.529458        -0.877252        -0.377852
 H        -1.113337         3.417225         0.197390
