19
Iteration:  3585charge 0 multiplicity 1
 O        -3.428048         4.786986         1.923331
 C        -3.101038         3.662239         1.060383
 C        -2.888433         2.364308         1.758767
 C        -2.565832         1.309586         0.758196
 C        -1.292741         2.021799         0.125721
 C         0.179744         1.493440         0.403765
 C         0.452146         0.194191        -0.219530
 O        -0.441083        -0.694475        -0.293497
 C        -1.608042         3.189694         1.108716
 H        -2.770909         5.517526         1.716055
 H        -3.718895         3.659862         0.122885
 H        -2.969744         2.263705         2.795100
 H        -2.288338         0.467585         1.307968
 H        -3.389397         1.088968        -0.013278
 H        -1.252379         2.178435        -1.073205
 H         0.819791         2.282041        -0.024016
 H         0.374582         1.634894         1.565565
 H         1.599659         0.046080        -0.523202
 H        -0.960832         4.122859         1.333558
