19
Iteration:   573charge 0 multiplicity 1
 O        -3.080310         5.010579         1.698890
 C        -2.899342         3.833350         0.808462
 C        -3.270001         2.485404         1.389770
 C        -2.831838         1.223949         0.589559
 C        -1.421696         1.850379         0.432679
 C        -0.352100         1.019237         1.077880
 C        -0.015585        -0.131165         0.097289
 O         0.813882         0.005444        -0.774139
 C        -1.787267         2.954293         1.358997
 H        -2.822559         5.799714         1.225602
 H        -3.006413         4.154389        -0.191215
 H        -3.974838         2.407453         2.198120
 H        -2.743564         0.299154         1.250674
 H        -3.571043         1.098553        -0.311403
 H        -0.898681         2.232028        -0.492105
 H         0.564251         1.593776         1.264097
 H        -0.778442         0.583641         1.977370
 H        -0.671133        -1.059381         0.207458
 H        -1.197903         3.407202         2.231124
