19
Iteration:  4430
 O        -3.360884         4.946586         2.113466
 C        -2.585337         4.144140         1.230686
 C        -3.145671         2.814071         0.774090
 C        -2.283173         2.174653        -0.397194
 C        -1.110935         2.084788         0.605395
 C        -0.920129         0.534445         0.913821
 C        -0.009823         0.012422        -0.202000
 O         0.545531        -1.087005        -0.174066
 C        -1.905200         2.823616         1.685896
 H        -2.823135         5.531453         2.711280
 H        -2.078211         4.798827         0.538145
 H        -4.141994         2.397515         1.003737
 H        -2.630989         1.147688        -0.771625
 H        -1.974817         2.920559        -1.117221
 H        -0.087329         2.430953         0.345102
 H        -0.401213         0.367168         1.830743
 H        -1.896140         0.014995         0.773554
 H         0.068420         0.632523        -1.160186
 H        -1.780520         2.512748         2.731607
