19
Iteration:   689charge 0 multiplicity 1
 O        -3.235437         5.054661         1.468297
 C        -2.905456         3.868819         0.843548
 C        -3.256455         2.631757         1.575005
 C        -3.028073         1.338131         0.766222
 C        -1.492485         1.734059         0.523337
 C        -0.252719         0.869527         1.092968
 C         0.045279         0.083332        -0.218001
 O         1.074672        -0.225837        -0.781281
 C        -1.790506         2.946053         1.488904
 H        -2.426222         5.544172         1.628989
 H        -3.009948         3.891677        -0.307080
 H        -4.092900         2.607131         2.269976
 H        -3.065947         0.386859         1.362923
 H        -3.595779         1.251495        -0.135879
 H        -1.333949         2.045317        -0.458247
 H         0.582879         1.574331         1.459460
 H        -0.566757         0.101110         1.907966
 H        -0.959781        -0.147847        -0.652942
 H        -1.086729         3.418823         2.276649
