19
Iteration:  4017
 O        -3.092371         5.008122         1.551914
 C        -2.607616         3.820528         0.950173
 C        -3.233313         2.626333         1.401221
 C        -2.863589         1.476884         0.468613
 C        -1.312840         1.796872         0.529900
 C        -0.553432         0.606332         1.119099
 C        -0.104515        -0.201028        -0.001576
 O         0.574664         0.274029        -0.849720
 C        -1.581831         2.862700         1.597997
 H        -2.534208         5.825181         1.452342
 H        -2.474926         4.029572        -0.156175
 H        -4.009314         2.573366         2.225241
 H        -3.077004         0.421756         0.786102
 H        -3.249051         1.465428        -0.503351
 H        -0.934004         2.165675        -0.496501
 H         0.173877         0.933342         1.819570
 H        -1.285144         0.035536         1.646507
 H        -0.472867        -1.226137        -0.098721
 H        -1.070445         3.009686         2.513993
