19
Iteration:  2651
 O        -3.599429         4.368606         0.451536
 C        -3.203488         3.078228         0.957385
 C        -2.166801         3.076592         2.088884
 C        -2.104634         1.546228         2.474808
 C        -1.664120         1.213253         1.034198
 C        -0.057897         0.879910         1.057858
 C         0.392339         0.928268        -0.381083
 O        -0.348343         0.572479        -1.287702
 C        -1.819949         2.745531         0.643956
 H        -3.861424         4.177707        -0.465384
 H        -4.054224         2.364122         0.945718
 H        -2.168987         3.878533         2.763322
 H        -1.260540         1.263386         3.200638
 H        -2.847841         0.856051         2.961432
 H        -2.186327         0.595378         0.302332
 H         0.481310         1.552496         1.721482
 H         0.062218        -0.236119         1.298633
 H         1.472222         1.166252        -0.574220
 H        -1.323569         3.317022        -0.120989
