19
Iteration:  4690charge 0 multiplicity 1
 O        -2.864837         4.958162         2.200862
 C        -2.283129         3.996358         1.257502
 C        -3.210134         3.071821         0.500711
 C        -2.421403         2.278017        -0.577358
 C        -1.507060         1.881277         0.624432
 C        -1.087557         0.390655         1.067462
 C         0.032192        -0.439345         0.388545
 O         0.770566        -0.254521        -0.574077
 C        -2.355618         2.483455         1.571772
 H        -2.368255         4.970465         3.020172
 H        -1.432819         4.363495         0.740737
 H        -4.223012         3.377632         0.371756
 H        -3.032585         1.540664        -0.987996
 H        -2.011462         2.945521        -1.305682
 H        -0.412863         2.320283         0.570409
 H        -0.902110         0.437340         2.189943
 H        -1.956718        -0.270421         1.013337
 H         0.248026        -1.497877         0.982833
 H        -2.704053         2.202321         2.602060
