19
Iteration:   642charge 0 multiplicity 1
 O        -3.391201         5.132680         1.356809
 C        -2.792899         3.816594         0.918405
 C        -3.251864         2.530689         1.605512
 C        -2.871607         1.391054         0.762368
 C        -1.334252         1.899060         0.536899
 C        -0.459014         0.761538         0.935783
 C        -0.013462        -0.258954        -0.180462
 O         1.027700         0.002146        -0.773446
 C        -1.724042         3.007791         1.587723
 H        -2.671538         5.770919         1.537902
 H        -2.776696         3.777728        -0.148392
 H        -3.973923         2.594228         2.494362
 H        -2.755084         0.563113         1.438353
 H        -3.508809         1.127178        -0.174487
 H        -1.140439         2.349309        -0.433679
 H         0.499019         1.197614         1.269544
 H        -0.966679         0.220267         1.855299
 H        -0.689075        -1.106135        -0.431112
 H        -1.133525         3.181259         2.466357
