19
Iteration:   291
 O        -3.329344         4.767525         1.866458
 C        -2.706797         3.877879         0.865974
 C        -3.300378         2.468988         0.951629
 C        -2.434088         1.455043         0.064835
 C        -1.139099         2.116119         0.572298
 C        -0.049401         1.145362         1.169313
 C         0.408827         0.139215         0.151221
 O        -0.289433        -0.537113        -0.557189
 C        -1.805900         2.961698         1.569029
 H        -4.130305         5.082186         1.396849
 H        -2.474494         4.278077        -0.198324
 H        -4.173793         2.236293         1.544990
 H        -2.513136         0.454762         0.365082
 H        -2.617143         1.537887        -0.959885
 H        -0.576484         2.763167        -0.200220
 H         0.731145         1.644544         1.713801
 H        -0.529851         0.498450         1.895373
 H         1.548412        -0.044729         0.107747
 H        -1.380093         3.467852         2.480293
