19
Iteration:   493charge 0 multiplicity 1
 O        -3.424519         5.036708         1.733559
 C        -3.022560         3.880301         0.926649
 C        -3.114768         2.513277         1.464278
 C        -2.749329         1.433040         0.363890
 C        -1.227108         1.988853         0.373176
 C        -0.344993         0.982945         1.053794
 C         0.186273        -0.220753         0.240165
 O         0.612168        -0.324359        -0.911203
 C        -1.750608         3.035664         1.441723
 H        -2.846080         5.781391         1.490433
 H        -3.114000         4.052205        -0.187119
 H        -3.775106         2.366535         2.316344
 H        -2.802303         0.414478         0.906741
 H        -3.092911         1.527480        -0.706087
 H        -0.639189         2.350307        -0.583148
 H         0.694313         1.353431         1.257318
 H        -0.631500         0.713792         1.997621
 H         0.424787        -1.155138         0.875696
 H        -1.262966         3.429544         2.317944
