19
Iteration:  1772
 O        -3.235642         4.521315         0.420094
 C        -3.145914         3.161628         0.827785
 C        -2.216207         3.005723         2.105517
 C        -2.216443         1.597921         2.564556
 C        -1.838550         1.139500         1.070389
 C        -0.565933         0.363185         0.966183
 C         0.301892         0.652787        -0.298768
 O        -0.111225         1.209735        -1.312945
 C        -1.689688         2.625063         0.748999
 H        -3.021043         4.483091        -0.518109
 H        -4.099554         2.641845         0.557945
 H        -2.092863         3.906230         2.656211
 H        -1.333564         1.154191         3.142564
 H        -3.154692         1.187425         2.864454
 H        -2.636134         0.739392         0.394506
 H         0.051010         0.608565         1.788722
 H        -0.472813        -0.702783         0.957425
 H         1.447129         0.345014        -0.231054
 H        -1.020139         3.021500         0.025347
