19
Iteration:   811charge 0 multiplicity 1
 O        -3.342821         4.884358         1.843959
 C        -3.084805         3.849095         0.903839
 C        -3.019795         2.494260         1.685893
 C        -2.844908         1.374734         0.612850
 C        -1.463319         2.085967         0.225447
 C        -0.442198         1.159155         0.695649
 C        -0.006344        -0.113135        -0.249775
 O         1.130448        -0.597323        -0.294202
 C        -1.754480         3.272941         1.190929
 H        -2.646008         5.537717         1.797055
 H        -3.717850         3.889721        -0.033914
 H        -3.494316         2.403628         2.687263
 H        -2.777431         0.317749         0.987504
 H        -3.681631         1.412266        -0.017861
 H        -1.315905         2.355535        -0.811352
 H         0.590686         1.617329         0.736051
 H        -0.632220         0.648114         1.694916
 H        -0.877058        -0.599691        -0.792428
 H        -0.953594         3.929308         1.411276
