19
Iteration:  3387charge 0 multiplicity 1
 O        -3.424375         4.951660         1.184368
 C        -3.075486         3.589318         0.911841
 C        -2.740181         2.757891         2.197161
 C        -2.483749         1.176076         1.842620
 C        -1.470057         1.717133         0.697571
 C        -0.139483         1.038631         0.679463
 C         0.434033         0.223725        -0.441765
 O        -0.105408        -0.229024        -1.403184
 C        -1.648767         3.137348         1.250029
 H        -3.199630         5.376289         0.354939
 H        -3.616209         2.917271         0.166643
 H        -3.116681         3.421495         3.006783
 H        -2.134009         0.648330         2.711119
 H        -3.501975         0.601514         1.492612
 H        -1.898915         1.388707        -0.363330
 H         0.668107         1.728735         0.986926
 H        -0.140615         0.322028         1.592445
 H         1.498937         0.097200        -0.296914
 H        -0.933287         3.849871         1.389315
