19
Iteration:  3852
 O        -3.063411         5.076875         1.754814
 C        -2.884202         3.884313         1.011891
 C        -3.212414         2.558744         1.671198
 C        -2.936069         1.523708         0.547998
 C        -1.460139         1.885430         0.409696
 C        -0.560396         0.725060         0.854160
 C        -0.124553        -0.007961        -0.294033
 O         1.069296        -0.279324        -0.549288
 C        -1.711907         3.005899         1.289695
 H        -2.514049         5.754308         1.381735
 H        -3.146102         3.863533        -0.116944
 H        -3.592814         2.627740         2.625230
 H        -3.041289         0.358426         0.814049
 H        -3.690558         1.443256        -0.322839
 H        -1.144334         2.028463        -0.555198
 H         0.276888         1.188132         1.416008
 H        -0.971740        -0.065026         1.561962
 H        -0.935646        -0.667979        -0.791966
 H        -0.947155         3.405144         2.037056
