19
Iteration:  4890charge 0 multiplicity 1
 O        -3.642738         4.524125         1.894422
 C        -2.330569         4.100227         1.505440
 C        -2.598325         3.249984         0.240997
 C        -1.362021         2.528604        -0.387421
 C        -0.964973         1.960515         0.980436
 C        -0.705215         0.503019         1.285818
 C        -0.432759        -0.501918         0.265456
 O        -0.301013        -0.439435        -0.911993
 C        -2.206958         2.585427         1.700080
 H        -3.809064         4.674916         2.875608
 H        -1.613484         4.883973         1.630123
 H        -3.562320         3.244847        -0.265775
 H        -1.714741         1.774559        -1.163929
 H        -0.616096         3.206391        -0.857748
 H         0.032790         2.385675         1.165553
 H         0.060335         0.413707         2.089503
 H        -1.550497        -0.040387         1.758340
 H        -0.357652        -1.501150         0.731623
 H        -2.903063         2.072353         2.433079
