19
Iteration:   319
 O        -3.495683         4.802214         1.701238
 C        -2.681514         3.916900         0.862064
 C        -3.236021         2.508065         1.010518
 C        -2.348972         1.486630         0.233622
 C        -1.048761         2.145371         0.673722
 C         0.034471         1.100110         1.098676
 C         0.363476         0.094781         0.123368
 O        -0.310923        -0.562732        -0.677911
 C        -1.909587         2.889631         1.701838
 H        -3.477432         5.623606         1.222896
 H        -2.452805         4.213567        -0.124932
 H        -4.200695         2.365161         1.480322
 H        -2.457630         0.384858         0.573583
 H        -2.568473         1.440424        -0.903505
 H        -0.650765         2.856813        -0.012958
 H         1.049718         1.549544         1.342366
 H        -0.310067         0.665286         2.114765
 H         1.441390         0.010508        -0.034800
 H        -1.889874         2.936626         2.742916
