19
Iteration:  4083
 O        -3.143252         5.053716         1.874729
 C        -2.674243         3.969185         0.998016
 C        -3.291004         2.550955         1.205593
 C        -2.770742         1.557726         0.158744
 C        -1.236607         1.855906         0.474700
 C        -0.475113         0.820704         1.147210
 C         0.270536        -0.216123         0.223001
 O         0.289544        -0.238381        -1.033973
 C        -1.821801         2.952441         1.605467
 H        -2.382548         5.568431         2.105553
 H        -2.440042         4.372100        -0.040617
 H        -3.967110         2.266017         2.019449
 H        -3.076529         0.464268         0.150786
 H        -3.062941         1.986906        -0.727178
 H        -0.650997         2.236830        -0.476435
 H         0.403357         1.127119         1.674885
 H        -1.106095         0.429826         1.920919
 H         1.005437        -0.865899         0.824329
 H        -1.398424         3.073795         2.549026
