19
Iteration:  1649charge 0 multiplicity 1
 O        -3.515932         4.819312         0.945005
 C        -3.315514         3.401131         0.948317
 C        -2.511834         2.940460         2.181788
 C        -2.383257         1.394297         2.062316
 C        -1.554169         1.497997         0.765734
 C        -0.101498         0.888171         0.922956
 C         0.566337         0.294360        -0.324158
 O        -0.000192         0.090266        -1.390800
 C        -1.860859         3.038108         0.819344
 H        -3.423660         5.164526         0.046283
 H        -4.195234         2.826865         0.642191
 H        -2.443234         3.570615         3.074972
 H        -1.828359         0.898565         2.892138
 H        -3.385464         0.989740         1.990026
 H        -1.972908         0.816779        -0.036480
 H         0.714749         1.510785         1.310509
 H        -0.057273         0.101901         1.723417
 H         1.607891        -0.061527        -0.189149
 H        -1.165460         3.777399         0.337128
