19
Iteration:  2786charge 0 multiplicity 1
 O        -3.849345         4.551454         0.990804
 C        -3.301520         3.282655         0.993141
 C        -2.320356         3.036242         2.112677
 C        -2.296103         1.480416         2.282837
 C        -1.564011         1.449290         0.876777
 C        -0.042901         1.074775         0.802510
 C         0.312712         0.823232        -0.627550
 O         0.352352        -0.270720        -1.168124
 C        -1.871607         3.008154         0.624883
 H        -4.051848         4.682993         0.066825
 H        -4.103836         2.481872         0.755791
 H        -2.169608         3.885471         2.902696
 H        -1.594311         1.051378         3.223090
 H        -3.261227         1.024373         2.381158
 H        -1.966126         0.765947         0.095757
 H         0.605527         1.740891         1.294661
 H        -0.077514         0.113159         1.498129
 H         0.336198         1.764744        -1.254722
 H        -1.087517         3.722578         0.272206
