19
Iteration:    41charge 0 multiplicity 1
 O        -3.550392         4.984723         1.664409
 C        -2.758136         3.948075         0.985474
 C        -3.137242         2.437634         1.016240
 C        -2.235057         1.744943         0.013403
 C        -0.921013         2.183083         0.829111
 C        -0.226402         0.788037         1.225139
 C         0.242543         0.222765        -0.153292
 O        -0.091982        -0.855090        -0.582373
 C        -1.876355         2.914047         1.829567
 H        -4.255195         5.274251         1.009202
 H        -2.295502         4.361799         0.085763
 H        -4.171014         2.206163         1.443841
 H        -2.355978         0.708077        -0.243181
 H        -2.249661         2.046410        -1.105678
 H        -0.220141         2.911744         0.333034
 H         0.569568         0.882244         1.989707
 H        -1.004839         0.034214         1.432585
 H         0.675807         1.095329        -0.851940
 H        -1.806656         3.112830         2.876931
