19
Iteration:  2175
 O        -3.620428         4.657645         0.822767
 C        -3.371397         3.220926         1.087268
 C        -2.375739         2.969261         2.093646
 C        -2.205694         1.445357         2.344300
 C        -1.622462         1.315310         0.920949
 C        -0.059833         1.159934         0.866309
 C         0.356576         0.911673        -0.567855
 O         0.266702        -0.115247        -1.206870
 C        -2.051278         2.797199         0.583726
 H        -3.629403         4.525650        -0.133518
 H        -4.289362         2.646093         1.162996
 H        -2.004575         3.597465         2.836521
 H        -1.496493         1.383379         3.136689
 H        -3.183235         0.894957         2.613102
 H        -2.018584         0.605734         0.241236
 H         0.448427         2.021388         1.319026
 H         0.177115         0.118305         1.336372
 H         0.830530         1.786915        -1.031137
 H        -1.546974         3.493160        -0.098106
