19
Iteration:  2338
 O        -3.610979         4.331204         0.518355
 C        -3.254142         3.042827         0.852557
 C        -2.339681         3.003838         2.003976
 C        -2.078715         1.648658         2.591855
 C        -1.499277         1.221743         1.149838
 C        -0.013871         0.856767         1.095347
 C         0.355814         0.586104        -0.376818
 O        -0.313945         1.004420        -1.327712
 C        -1.796368         2.615479         0.501241
 H        -3.800424         4.291456        -0.445325
 H        -4.084320         2.198516         0.826474
 H        -2.285856         3.923853         2.659826
 H        -1.334358         1.698850         3.356264
 H        -3.062209         1.188353         2.845746
 H        -2.244625         0.440452         0.671395
 H         0.577492         1.695611         1.357141
 H         0.113179         0.018236         1.790921
 H         1.257302        -0.051318        -0.608338
 H        -1.165873         3.137952        -0.155463
