19
Iteration:  2752
 O        -3.841353         4.509065         0.822736
 C        -3.319441         3.238161         1.035726
 C        -2.361500         3.113541         2.164929
 C        -2.106756         1.516801         2.329886
 C        -1.612530         1.462896         0.839254
 C        -0.152528         0.929938         0.805528
 C         0.459295         0.795102        -0.509693
 O         0.224246        -0.123564        -1.294592
 C        -1.887194         2.988717         0.748097
 H        -3.995833         4.514392        -0.138107
 H        -4.141468         2.431453         0.871324
 H        -2.305591         3.985653         2.876197
 H        -1.040902         1.379565         2.963805
 H        -2.949798         0.947507         2.762836
 H        -2.230436         0.788110         0.179810
 H         0.440206         1.532727         1.409380
 H        -0.336782        -0.188282         1.261932
 H         1.018669         1.713067        -0.834924
 H        -1.150634         3.772283         0.406427
