19
Iteration:  1643charge 0 multiplicity 1
 O        -3.521342         4.816792         0.960778
 C        -3.294909         3.390249         0.947287
 C        -2.504674         2.929697         2.177068
 C        -2.398062         1.372448         2.066600
 C        -1.544460         1.580497         0.750728
 C        -0.087233         0.897643         0.963823
 C         0.576764         0.283791        -0.367069
 O        -0.006457         0.041122        -1.397603
 C        -1.869076         3.025419         0.809782
 H        -3.524273         5.194522         0.042351
 H        -4.117025         2.844162         0.405632
 H        -2.401076         3.551027         3.078827
 H        -1.981767         0.972555         3.033346
 H        -3.427033         0.932776         2.089475
 H        -2.031336         1.025334        -0.097094
 H         0.690219         1.651935         1.261289
 H        -0.117301         0.014316         1.669133
 H         1.669248         0.080645        -0.063235
 H        -1.189717         3.847924         0.563518
