19
Iteration:   236
 O        -3.391405         4.792566         1.799512
 C        -2.930791         3.842605         0.895875
 C        -3.129687         2.450734         1.213175
 C        -2.473092         1.754210         0.055150
 C        -1.089119         2.167884         0.346737
 C        -0.349397         1.052865         1.116692
 C         0.420023         0.018867         0.270162
 O        -0.025684        -0.720739        -0.580282
 C        -1.683702         3.097584         1.448142
 H        -3.522163         4.353013         2.695618
 H        -2.855056         4.325182        -0.149423
 H        -3.986266         2.128716         1.749654
 H        -2.637183         0.699980         0.074841
 H        -2.883056         2.161414        -0.831974
 H        -0.335018         2.576456        -0.408479
 H         0.317213         1.615661         1.805266
 H        -1.080674         0.527369         1.735855
 H         1.490019         0.047942         0.452759
 H        -1.335438         3.373181         2.431358
