19
Iteration:  3093charge 0 multiplicity 1
 O        -3.152709         4.662693         0.532079
 C        -3.214925         3.340994         0.945236
 C        -2.235236         2.965639         2.099028
 C        -2.236871         1.507209         2.545742
 C        -1.959135         1.102357         1.010653
 C        -0.558498         0.360277         0.801230
 C        -0.210960         0.415002        -0.670471
 O         0.622551         1.259016        -1.009282
 C        -1.874131         2.609800         0.746545
 H        -2.832495         4.710514        -0.369326
 H        -4.122461         2.798809         0.838251
 H        -1.969422         3.814605         2.824076
 H        -1.238215         1.258249         3.152484
 H        -3.146340         1.196566         3.077506
 H        -2.675750         0.512334         0.400247
 H         0.328226         0.813459         1.360170
 H        -0.671279        -0.772173         1.081160
 H        -0.901737        -0.221491        -1.317173
 H        -1.117264         3.161033         0.030713
