19
Iteration:  4682charge 0 multiplicity 1
 O        -2.913562         4.915358         2.188935
 C        -2.264900         4.022768         1.241081
 C        -3.188207         3.138957         0.496961
 C        -2.439354         2.310126        -0.502148
 C        -1.426168         1.806474         0.521288
 C        -1.094754         0.373293         1.034281
 C        -0.002857        -0.433811         0.396218
 O         0.794185        -0.246586        -0.541089
 C        -2.351166         2.511125         1.655174
 H        -2.321657         4.850339         2.925738
 H        -1.418025         4.567573         0.648195
 H        -4.264740         3.267116         0.393540
 H        -3.072469         1.400479        -0.757206
 H        -2.066120         2.731161        -1.446832
 H        -0.497537         2.425975         0.438687
 H        -0.849779         0.408713         2.112131
 H        -1.940874        -0.393215         0.946089
 H        -0.129997        -1.418016         0.812027
 H        -2.614272         2.308033         2.674240
