19
Iteration:  1180
 O        -3.750711         4.762981         1.392221
 C        -3.166284         3.620863         0.938194
 C        -2.864164         2.352955         1.855350
 C        -2.322059         1.269053         1.099576
 C        -1.128179         2.064369         0.545682
 C         0.285071         1.494155         0.401678
 C         0.398529         0.260195        -0.430468
 O        -0.343007        -0.713773        -0.411770
 C        -1.674999         3.289519         1.417190
 H        -3.758946         5.489353         0.788192
 H        -3.590175         3.443637        -0.109203
 H        -3.121770         2.312754         2.838450
 H        -2.019313         0.620662         1.952960
 H        -2.847907         0.671998         0.460850
 H        -1.424250         2.266427        -0.505352
 H         1.130780         2.257190         0.298597
 H         0.487007         1.124645         1.397793
 H         0.948527         0.414867        -1.503774
 H        -0.991246         3.967291         1.992337
