19
Iteration:  4721charge 0 multiplicity 1
 O        -2.834025         5.008553         2.102710
 C        -2.363324         3.937076         1.270083
 C        -3.155139         3.048968         0.467273
 C        -2.246779         2.319789        -0.478204
 C        -1.411427         1.774784         0.703736
 C        -1.098329         0.322548         1.040465
 C         0.125401        -0.364929         0.481171
 O         0.515096        -0.166536        -0.676291
 C        -2.425285         2.452089         1.612238
 H        -2.441089         5.033925         3.016733
 H        -1.456399         4.147561         0.766596
 H        -4.180257         3.254598         0.200034
 H        -2.864908         1.553150        -0.883781
 H        -1.840517         2.932105        -1.325553
 H        -0.425966         2.343328         0.747255
 H        -1.033738         0.340959         2.160370
 H        -1.840616        -0.426166         0.827054
 H         0.654935        -1.064630         1.089996
 H        -2.873500         2.126627         2.637111
