19
Iteration:  4167
 O        -3.445235         4.760367         2.017689
 C        -2.690958         4.048710         1.019688
 C        -3.185737         2.576346         1.010699
 C        -2.341376         1.730968        -0.070453
 C        -1.021614         2.162108         0.555418
 C        -0.134692         0.908954         1.167364
 C         0.324558        -0.031029         0.034084
 O        -0.390255        -0.688994        -0.709000
 C        -1.762218         2.978718         1.596225
 H        -2.712376         5.361870         2.348307
 H        -2.584169         4.466132         0.039488
 H        -4.138424         2.411111         1.580342
 H        -2.451553         0.593554        -0.009448
 H        -2.545905         1.934460        -1.175040
 H        -0.437841         2.715963        -0.102069
 H         0.754674         1.254935         1.789965
 H        -1.022503         0.429991         1.648307
 H         1.457905        -0.010437        -0.205224
 H        -1.555157         2.777408         2.612960
