19
Iteration:  4803
 O        -3.234322         4.883346         1.831397
 C        -2.276784         4.028833         1.245453
 C        -2.828178         2.997687         0.420788
 C        -1.691398         2.225452        -0.348201
 C        -1.198150         1.757616         1.051940
 C        -1.158262         0.261862         1.207158
 C        -0.037423        -0.255712         0.311073
 O        -0.024176        -0.018734        -0.925074
 C        -2.280520         2.449528         1.847621
 H        -2.915675         5.243804         2.699797
 H        -1.274330         4.369438         0.914909
 H        -3.907844         3.029774         0.192750
 H        -2.051248         1.374139        -0.993966
 H        -1.091557         2.948722        -0.849241
 H        -0.134505         2.227885         1.303920
 H        -0.974985        -0.014330         2.254576
 H        -2.110679        -0.292551         0.870807
 H         0.685825        -0.895587         0.728461
 H        -2.770299         2.190077         2.754268
