19
Iteration:  2310charge 0 multiplicity 1
 O        -3.684870         4.253131         0.416866
 C        -3.153124         3.081815         0.773380
 C        -2.453298         3.064864         2.169390
 C        -2.009014         1.636306         2.595136
 C        -1.554040         1.275198         1.160024
 C        -0.136237         0.745585         1.006582
 C         0.382444         0.766615        -0.431622
 O        -0.312932         0.799398        -1.404546
 C        -1.728544         2.740031         0.745850
 H        -3.564839         4.323124        -0.528936
 H        -3.758908         2.239379         0.621072
 H        -2.197266         3.943358         2.835828
 H        -1.075552         1.778619         3.277467
 H        -2.830176         1.023406         2.998872
 H        -2.326220         0.728593         0.662333
 H         0.554812         1.440714         1.624455
 H        -0.051328        -0.261655         1.486372
 H         1.537874         0.453217        -0.576288
 H        -0.856552         3.375006         0.335992
