19
Iteration:  3392
 O        -3.431398         4.951137         1.190733
 C        -3.082974         3.570445         0.916947
 C        -2.718310         2.714333         2.166038
 C        -2.564258         1.196259         1.851036
 C        -1.460812         1.722053         0.714025
 C        -0.080367         1.017152         0.670940
 C         0.437257         0.213602        -0.411443
 O        -0.129530        -0.236056        -1.416819
 C        -1.664951         3.162908         1.222381
 H        -3.280075         5.421868         0.340008
 H        -3.636034         3.086893         0.113000
 H        -2.888402         3.289304         3.100017
 H        -2.111769         0.610115         2.703909
 H        -3.409945         0.688762         1.434598
 H        -1.852972         1.557205        -0.229857
 H         0.679179         1.791676         0.902152
 H         0.027406         0.472888         1.578734
 H         1.577070         0.092557        -0.192689
 H        -0.856532         3.976883         1.489470
