19
Iteration:  1764
 O        -3.242700         4.565990         0.446791
 C        -3.124869         3.232935         0.885749
 C        -2.261362         3.058617         2.106670
 C        -2.269071         1.538204         2.501538
 C        -1.821192         1.123093         1.020515
 C        -0.460674         0.346630         0.987517
 C         0.373130         0.672124        -0.300766
 O        -0.110411         1.135541        -1.338086
 C        -1.777286         2.654370         0.738838
 H        -3.153918         4.477763        -0.521335
 H        -3.912084         2.448186         0.679614
 H        -2.032263         3.993749         2.586405
 H        -1.368052         1.395685         3.195555
 H        -3.120809         0.995564         3.050567
 H        -2.674467         0.518014         0.401500
 H         0.217799         0.594180         1.854852
 H        -0.780571        -0.771759         1.049168
 H         1.338080         0.121264        -0.247379
 H        -1.099003         3.125119         0.095799
