19
Iteration:  3859charge 0 multiplicity 1
 O        -3.020189         5.112150         1.729176
 C        -2.914236         3.881867         0.971286
 C        -3.231862         2.523849         1.612435
 C        -2.952922         1.501834         0.585423
 C        -1.454323         1.811987         0.433375
 C        -0.532326         0.695224         0.889763
 C        -0.121571        -0.031623        -0.319145
 O         1.053086        -0.200623        -0.562723
 C        -1.734076         3.020609         1.355378
 H        -2.356712         5.693132         1.265107
 H        -3.126073         4.001898        -0.105629
 H        -3.571846         2.528263         2.678717
 H        -2.934643         0.454677         0.981300
 H        -3.699495         1.630677        -0.186395
 H        -1.034928         2.214053        -0.608762
 H         0.334606         1.030336         1.393645
 H        -1.051435        -0.077153         1.425848
 H        -1.024543        -0.568951        -0.720917
 H        -1.055205         3.262853         2.094655
