19
Iteration:  1388charge 0 multiplicity 1
 O        -3.641102         4.694387         1.662607
 C        -3.253094         3.557640         1.019907
 C        -2.565384         2.533194         1.913697
 C        -2.316991         1.165470         1.081944
 C        -1.365392         2.015959         0.181200
 C         0.139332         1.621727         0.285483
 C         0.125089         0.110632         0.291240
 O        -0.040301        -0.594000        -0.700529
 C        -1.701975         3.273086         0.936526
 H        -3.683986         5.528901         1.125942
 H        -3.849258         3.276098         0.146605
 H        -2.373827         2.707478         3.018748
 H        -1.819639         0.438169         1.810346
 H        -3.158042         0.641878         0.713584
 H        -1.593835         2.144060        -0.856417
 H         0.715509         2.161422        -0.396211
 H         0.465987         1.920148         1.263664
 H         0.265015        -0.379089         1.330850
 H        -1.143211         4.192030         1.142012
