19
Iteration:  1973charge 0 multiplicity 1
 O        -3.632146         4.729437         0.960209
 C        -3.280027         3.376721         0.944911
 C        -2.437605         3.033960         2.104561
 C        -2.380547         1.458181         2.430810
 C        -1.711749         1.391379         0.871697
 C        -0.185749         0.977200         0.783812
 C         0.043835         0.116621        -0.470539
 O         0.820161         0.337502        -1.400026
 C        -1.853195         2.895740         0.704223
 H        -3.930528         5.131698         0.153763
 H        -4.177965         2.732552         0.617457
 H        -2.415184         3.804368         2.834320
 H        -1.721729         1.028886         3.245462
 H        -3.453812         0.925947         2.471753
 H        -2.462256         0.961885         0.235186
 H         0.404301         1.900259         0.901751
 H         0.052674         0.259509         1.645337
 H        -0.650436        -0.812432        -0.543640
 H        -1.294217         3.604612         0.216018
