19
Iteration:  1070
 O        -3.548487         4.766950         1.730177
 C        -3.276271         3.609426         1.024442
 C        -2.770337         2.439437         1.809537
 C        -2.486789         1.279877         0.853880
 C        -1.290273         2.131870         0.186634
 C         0.104086         1.519495         0.585492
 C         0.443624         0.203657        -0.304742
 O        -0.069070        -0.877256        -0.260207
 C        -1.718110         3.316045         1.067504
 H        -3.661005         5.556631         1.138225
 H        -3.976625         3.291463         0.189079
 H        -3.181024         2.445789         2.854835
 H        -2.118881         0.396392         1.379586
 H        -3.137493         0.945025         0.053689
 H        -1.644097         2.367360        -0.837798
 H         0.798866         2.401956         0.352562
 H         0.104197         1.386488         1.680891
 H         1.264174         0.475996        -1.130728
 H        -0.973651         4.061857         1.362926
