19
Iteration:  1530
 O        -3.520779         4.807503         1.113724
 C        -3.122949         3.456634         0.909870
 C        -2.765182         2.679352         2.089373
 C        -2.363125         1.189564         1.694009
 C        -1.429132         1.670631         0.606652
 C         0.036265         1.347298         0.720915
 C         0.462955         0.456949        -0.391529
 O        -0.262280        -0.365993        -0.926598
 C        -1.674517         3.104413         1.048272
 H        -3.378660         5.348018         0.301818
 H        -3.642306         2.863054         0.200192
 H        -2.900316         3.018864         3.089055
 H        -1.908795         0.607724         2.530614
 H        -3.190340         0.592393         1.397305
 H        -1.852533         1.479080        -0.316118
 H         0.499375         2.278581         0.840719
 H         0.234847         0.972549         1.755611
 H         1.564732         0.610340        -0.674525
 H        -0.973491         3.888826         0.945947
