19
Iteration:  1894charge 0 multiplicity 1
 O        -3.465271         4.668813         0.662562
 C        -3.179346         3.239170         0.820617
 C        -2.291195         3.027887         2.087590
 C        -2.358901         1.524361         2.463968
 C        -1.745175         1.194645         1.044841
 C        -0.286224         0.606496         0.971309
 C         0.136774         0.252086        -0.408363
 O         0.260881         1.023387        -1.356368
 C        -1.768020         2.715168         0.676736
 H        -3.047765         4.957509        -0.149698
 H        -4.122709         2.627203         0.460808
 H        -2.113987         3.871120         2.799195
 H        -1.653718         1.174400         3.383408
 H        -3.396930         1.247016         2.815333
 H        -2.461918         0.737341         0.419680
 H         0.485472         1.272075         1.520033
 H        -0.277625        -0.375266         1.559199
 H         0.367106        -0.857443        -0.460842
 H        -0.927422         3.180278         0.039414
