19
Iteration:  1860charge 0 multiplicity 1
 O        -3.258999         4.552634         0.461815
 C        -3.137979         3.203627         0.841816
 C        -2.327904         3.032714         2.083240
 C        -2.264956         1.568094         2.514575
 C        -1.774541         1.169046         1.069209
 C        -0.406978         0.468427         0.949235
 C         0.078381         0.405919        -0.385661
 O         0.054424         1.277816        -1.218067
 C        -1.691904         2.584566         0.717328
 H        -3.407574         4.635279        -0.484801
 H        -3.882910         2.401449         0.507036
 H        -2.151375         3.828403         2.806873
 H        -1.251769         1.399418         3.134387
 H        -3.167064         1.124667         2.987572
 H        -2.453947         0.710701         0.412170
 H         0.233063         1.076716         1.662974
 H        -0.324358        -0.633576         1.217253
 H         0.622114        -0.537378        -0.576262
 H        -0.960046         3.152431         0.125170
