19
Iteration:   736
 O        -3.152417         5.008189         1.673117
 C        -2.917263         3.789657         0.850867
 C        -3.303394         2.625582         1.611006
 C        -2.957719         1.376445         0.755145
 C        -1.503752         1.902134         0.443347
 C        -0.401888         0.961848         0.724694
 C        -0.004215        -0.017286        -0.296767
 O         1.183353        -0.312877        -0.467212
 C        -1.808504         2.952884         1.422249
 H        -3.251992         5.774504         1.044200
 H        -2.962133         3.820744        -0.302291
 H        -3.961867         2.685786         2.481497
 H        -2.823414         0.593824         1.535965
 H        -3.678221         1.035643         0.009560
 H        -1.378025         2.404099        -0.489310
 H         0.601034         1.469958         0.788759
 H        -0.528666         0.418941         1.682539
 H        -0.807862        -0.436499        -0.943704
 H        -1.229242         3.600350         1.998304
