19
Iteration:  1684
 O        -3.454206         4.732112         0.876490
 C        -3.198119         3.366237         0.844327
 C        -2.334893         2.894147         2.114716
 C        -2.381877         1.416025         2.263904
 C        -1.725187         1.319195         0.843364
 C        -0.220366         0.912964         0.986867
 C         0.404836         0.314285        -0.259053
 O         0.033679         0.440910        -1.404535
 C        -1.852170         2.928605         0.691586
 H        -3.283758         5.083213        -0.004452
 H        -4.074607         2.662888         0.702160
 H        -2.038296         3.699688         2.823110
 H        -1.635363         0.699180         2.814967
 H        -3.327490         0.913397         2.384817
 H        -2.183169         0.739157        -0.113289
 H         0.462015         1.773100         1.191329
 H        -0.236671         0.188003         1.895398
 H         1.392724        -0.210473        -0.064215
 H        -0.990335         3.477104         0.163000
