19
Iteration:  4712
 O        -2.809286         5.011522         2.120970
 C        -2.325718         3.937108         1.325370
 C        -3.257399         3.083479         0.426109
 C        -2.295128         2.320709        -0.525561
 C        -1.377433         1.824985         0.568458
 C        -1.057637         0.279752         1.018006
 C         0.102005        -0.359929         0.460698
 O         0.575048        -0.201884        -0.623710
 C        -2.489186         2.473400         1.704201
 H        -2.325670         4.903133         2.981817
 H        -1.466770         4.254173         0.841473
 H        -4.321047         2.994070         0.328486
 H        -2.726369         1.478124        -0.970265
 H        -1.790099         2.923251        -1.258750
 H        -0.292476         2.291168         0.612553
 H        -0.829731         0.399033         2.129438
 H        -1.909542        -0.385407         1.017740
 H         0.541659        -1.206600         1.177412
 H        -3.029526         2.280121         2.675197
