19
Iteration:   439charge 0 multiplicity 1
 O        -3.382608         4.744831         1.737373
 C        -2.795786         3.904730         0.762656
 C        -3.127954         2.426381         1.282081
 C        -2.658775         1.430287         0.292888
 C        -1.223723         1.947372         0.507979
 C        -0.157811         1.034545         1.211649
 C         0.290484        -0.113189         0.359866
 O         0.035641        -0.094124        -0.827161
 C        -1.732179         3.048615         1.380568
 H        -3.315870         5.721245         1.582432
 H        -2.900247         4.137184        -0.305275
 H        -3.691743         2.275735         2.162555
 H        -2.894299         0.298691         0.401110
 H        -2.892482         1.621729        -0.805511
 H        -0.613605         2.287924        -0.382829
 H         0.901195         1.542457         1.113629
 H        -0.140766         0.723657         2.267571
 H         0.801981        -0.965253         0.842790
 H        -1.169342         3.389631         2.201026
