19
Iteration:   240
 O        -3.386769         4.794046         1.802262
 C        -2.912869         3.875924         0.925993
 C        -3.146786         2.430409         1.218603
 C        -2.486183         1.698651         0.045556
 C        -1.066564         2.142631         0.356328
 C        -0.339265         1.051099         1.095360
 C         0.426302         0.043022         0.279842
 O        -0.053644        -0.686702        -0.562365
 C        -1.683202         3.099644         1.413354
 H        -3.655288         4.438527         2.638207
 H        -2.770679         4.181228        -0.098690
 H        -4.152253         2.159316         1.647912
 H        -2.673932         0.624934        -0.029054
 H        -2.812691         2.356863        -0.902596
 H        -0.393029         2.523135        -0.387146
 H         0.431279         1.597695         1.810182
 H        -1.031070         0.483937         1.818416
 H         1.556803         0.047991         0.409786
 H        -1.280599         3.348318         2.450243
