19
Iteration:  3716charge 0 multiplicity 1
 O        -3.474049         4.755313         2.000817
 C        -2.951877         3.835759         1.102635
 C        -2.937501         2.438606         1.618828
 C        -2.620850         1.498315         0.449159
 C        -1.317764         2.254372         0.080024
 C        -0.093131         1.343146         0.301180
 C        -0.227591        -0.006391        -0.339310
 O         0.517667        -0.926306         0.011043
 C        -1.566685         3.235654         1.340445
 H        -3.046791         5.663835         1.914783
 H        -3.325862         4.037029         0.070823
 H        -3.606143         2.265035         2.502721
 H        -2.462853         0.454674         0.764802
 H        -3.540712         1.418222        -0.213986
 H        -1.311372         2.647053        -0.877157
 H         0.749620         1.892562        -0.041150
 H         0.015449         1.176860         1.371090
 H        -1.078825        -0.054264        -1.177753
 H        -0.817716         3.603767         2.108717
