19
Iteration:  3207charge 0 multiplicity 1
 O        -3.126122         4.723699         0.688518
 C        -3.104561         3.309932         0.995140
 C        -2.222475         2.996451         2.121193
 C        -2.373027         1.479466         2.409050
 C        -1.919315         1.153056         0.920130
 C        -0.634201         0.355446         0.809933
 C         0.215455         0.437365        -0.329320
 O         0.151103         1.141948        -1.303173
 C        -1.742207         2.631004         0.704831
 H        -3.054723         4.767432        -0.284394
 H        -4.052707         2.856776         0.835888
 H        -2.106166         3.774803         2.881858
 H        -1.431687         1.028421         3.005456
 H        -3.394202         1.192456         2.721711
 H        -2.688302         0.845775         0.130141
 H         0.080090         0.758629         1.528519
 H        -0.762015        -0.681520         1.002338
 H         1.031772        -0.246505        -0.378253
 H        -0.977699         3.133372        -0.006408
