19
Iteration:  4434charge 0 multiplicity 1
 O        -3.356553         4.978579         2.119446
 C        -2.574887         4.099981         1.226956
 C        -3.178729         2.829096         0.754004
 C        -2.314715         2.190994        -0.430039
 C        -1.100722         2.069387         0.632431
 C        -0.901176         0.543902         0.916666
 C        -0.051132        -0.002859        -0.191063
 O         0.576415        -1.077419        -0.190717
 C        -1.913632         2.813019         1.711280
 H        -2.685910         5.445366         2.649610
 H        -2.037717         4.680338         0.462264
 H        -4.136141         2.392293         0.955952
 H        -2.598981         1.229529        -0.778460
 H        -2.005121         2.908909        -1.181261
 H        -0.049504         2.478014         0.379902
 H        -0.359549         0.321746         1.873661
 H        -1.814781        -0.074724         0.822330
 H         0.078347         0.658717        -1.058919
 H        -1.805143         2.585880         2.815717
