19
Iteration:   114
 O        -3.286979         5.027204         1.755220
 C        -2.765754         3.943729         0.969480
 C        -3.269708         2.494322         0.865169
 C        -2.410600         1.506741        -0.010719
 C        -1.152139         1.957904         0.698168
 C        -0.121935         0.983824         1.165588
 C         0.476552         0.257001         0.012916
 O        -0.200587        -0.630350        -0.495436
 C        -1.945125         2.859769         1.666445
 H        -3.780988         4.546800         2.461981
 H        -2.333077         4.334867        -0.002737
 H        -4.294436         2.210179         1.288498
 H        -2.655697         0.376495         0.075508
 H        -2.456782         1.624346        -1.104825
 H        -0.613445         2.663230         0.029754
 H         0.653124         1.561165         1.766737
 H        -0.640191         0.231984         1.821546
 H         1.482529         0.682702        -0.380090
 H        -1.630653         2.963387         2.703791
