19
Iteration:  3424
 O        -3.470735         4.888335         1.320029
 C        -3.086080         3.506502         0.930376
 C        -2.698646         2.741490         2.149170
 C        -2.585982         1.266549         1.691806
 C        -1.362193         1.685694         0.586111
 C         0.056581         1.145442         0.720279
 C         0.390717         0.097904        -0.300860
 O        -0.247774        -0.143428        -1.284941
 C        -1.626152         3.081052         1.114826
 H        -3.335049         5.500888         0.534266
 H        -3.815759         3.197575         0.179355
 H        -3.000332         3.289363         3.054854
 H        -2.228644         0.443790         2.368804
 H        -3.367898         0.861577         0.990228
 H        -1.736351         1.600761        -0.407962
 H         0.764763         2.000012         0.530080
 H         0.238976         0.906114         1.691943
 H         1.361539        -0.346575        -0.130709
 H        -0.785239         3.920588         1.121357
