19
Iteration:  1380
 O        -3.615576         4.748976         1.708043
 C        -3.239341         3.514884         1.028522
 C        -2.607431         2.492658         1.887947
 C        -2.309970         1.207785         1.120213
 C        -1.385957         2.034385         0.151510
 C         0.126634         1.631246         0.311287
 C         0.185625         0.074279         0.279993
 O        -0.021559        -0.630151        -0.689748
 C        -1.755168         3.364236         0.907484
 H        -3.434474         5.335680         0.929491
 H        -4.039207         3.141563         0.287321
 H        -2.826795         2.431781         2.946220
 H        -1.697448         0.440733         1.574936
 H        -3.117599         0.684801         0.614394
 H        -1.838072         2.130202        -0.887118
 H         0.773413         2.067002        -0.513208
 H         0.519938         1.792129         1.301892
 H         0.360780        -0.254353         1.296145
 H        -1.016158         4.071194         1.131252
