19
Iteration:  3143charge 0 multiplicity 1
 O        -3.197675         4.628456         0.582475
 C        -3.059249         3.256256         0.838739
 C        -2.155887         3.065708         2.101296
 C        -2.287799         1.560025         2.558509
 C        -1.852579         1.177784         1.010871
 C        -0.735275         0.071872         0.807016
 C         0.012381         0.361813        -0.594557
 O         0.250177         1.515256        -0.969986
 C        -1.675487         2.604421         0.662185
 H        -3.155561         4.826949        -0.425227
 H        -3.947414         2.512756         0.704317
 H        -1.729726         3.970323         2.496872
 H        -1.450245         1.136179         3.278000
 H        -3.309693         1.206079         2.955945
 H        -2.680360         0.728796         0.375320
 H         0.036360         0.267782         1.600579
 H        -0.960722        -1.023384         0.909067
 H         0.084423        -0.607752        -1.151577
 H        -0.994567         3.153941         0.030076
