19
Iteration:  2766
 O        -3.870041         4.523497         0.887389
 C        -3.320421         3.229508         1.049901
 C        -2.358682         3.074931         2.165252
 C        -2.180241         1.582682         2.276367
 C        -1.575619         1.469360         0.844489
 C        -0.137924         0.937595         0.850007
 C         0.388259         0.856484        -0.611035
 O         0.269958        -0.197382        -1.218033
 C        -1.795917         2.978992         0.714979
 H        -4.133307         4.771261        -0.007440
 H        -4.021639         2.316299         0.846372
 H        -2.159318         3.864140         2.994744
 H        -1.524003         1.104004         3.159964
 H        -3.069955         1.003717         2.354692
 H        -2.221445         0.912568         0.074836
 H         0.524635         1.627965         1.413402
 H        -0.001174        -0.087192         1.251927
 H         1.004689         1.677101        -1.034189
 H        -1.362583         3.623608        -0.062311
