19
Iteration:  1438charge 0 multiplicity 1
 O        -3.764321         4.641020         1.515362
 C        -3.188296         3.507882         0.936869
 C        -2.566049         2.600802         1.998459
 C        -2.191191         1.332587         1.352397
 C        -1.307398         2.004416         0.256071
 C         0.096797         1.543286         0.498409
 C         0.138078        -0.005220         0.157406
 O        -0.118689        -0.535576        -0.917300
 C        -1.679943         3.330031         0.971365
 H        -3.733349         5.328675         0.830764
 H        -3.819481         3.058020         0.148125
 H        -2.785920         2.807498         3.039516
 H        -1.838865         0.525594         1.890229
 H        -3.128511         0.814925         0.938121
 H        -1.540161         2.181738        -0.829710
 H         0.805376         2.059632        -0.220245
 H         0.681898         1.748114         1.473627
 H         0.601077        -0.622496         0.966432
 H        -1.081947         4.219236         1.347351
