19
Iteration:   288charge 0 multiplicity 1
 O        -3.327956         4.784241         1.863344
 C        -2.716846         3.883241         0.877090
 C        -3.304952         2.458204         0.959800
 C        -2.443031         1.474600         0.061681
 C        -1.112642         2.098024         0.541982
 C        -0.047899         1.113884         1.161042
 C         0.419317         0.148918         0.173756
 O        -0.287698        -0.524496        -0.543627
 C        -1.795023         2.951275         1.546982
 H        -4.216885         5.014326         1.462605
 H        -2.613681         4.334787        -0.118239
 H        -4.174852         2.307332         1.564170
 H        -2.559448         0.402428         0.401477
 H        -2.612618         1.638707        -1.005042
 H        -0.584085         2.672589        -0.211991
 H         0.746086         1.588549         1.647608
 H        -0.617596         0.582707         1.913360
 H         1.553934         0.028737         0.129167
 H        -1.393132         3.313577         2.458512
