19
Iteration:  2750
 O        -3.838341         4.512176         0.802207
 C        -3.313656         3.236334         1.044586
 C        -2.367851         3.088382         2.161950
 C        -2.083001         1.528061         2.355619
 C        -1.617974         1.473151         0.826476
 C        -0.165974         0.927948         0.814066
 C         0.470456         0.779289        -0.496573
 O         0.218488        -0.110485        -1.311461
 C        -1.897096         2.985975         0.746692
 H        -3.997108         4.568570        -0.125437
 H        -4.039432         2.461919         0.887166
 H        -2.306788         3.896385         2.790365
 H        -1.137017         1.430768         2.965715
 H        -2.922414         0.873422         2.845089
 H        -2.266568         0.823728         0.258108
 H         0.469745         1.561737         1.443123
 H        -0.333992        -0.178450         1.201982
 H         1.023359         1.719630        -0.825783
 H        -1.205002         3.771807         0.446209
