19
Iteration:  3369
 O        -3.389592         4.877087         1.140616
 C        -3.035283         3.544843         0.953856
 C        -2.812134         2.731763         2.189527
 C        -2.501157         1.342312         1.885454
 C        -1.594528         1.670037         0.683119
 C        -0.158182         0.965978         0.762754
 C         0.453216         0.319436        -0.477882
 O        -0.108653        -0.204100        -1.413144
 C        -1.619307         3.115310         1.160941
 H        -2.899318         5.420086         0.535480
 H        -3.546429         3.155781         0.046686
 H        -2.925824         3.006925         3.285152
 H        -1.735374         1.019353         2.594073
 H        -3.206609         0.508975         1.710643
 H        -2.004256         1.589941        -0.274727
 H         0.462931         1.662918         1.362996
 H        -0.191862         0.121525         1.427775
 H         1.598235         0.207890        -0.241895
 H        -0.714217         3.855632         1.198533
