19
Iteration:  3872charge 0 multiplicity 1
 O        -2.973065         5.099762         1.664877
 C        -2.894552         3.905613         0.952683
 C        -3.177176         2.605814         1.619333
 C        -3.028804         1.407755         0.584094
 C        -1.480943         1.843446         0.460843
 C        -0.537510         0.676082         0.950809
 C        -0.124097        -0.109008        -0.283102
 O         1.076255        -0.114705        -0.655411
 C        -1.741411         2.974648         1.470980
 H        -2.259141         5.664003         1.370450
 H        -3.184990         3.984189        -0.161933
 H        -3.825547         2.398030         2.413102
 H        -3.383797         0.390326         1.103917
 H        -3.529291         1.362584        -0.421605
 H        -1.217029         2.166072        -0.585305
 H         0.336318         0.986331         1.462555
 H        -1.110306         0.158273         1.713177
 H        -0.796543        -0.404246        -1.130720
 H        -1.151218         3.481468         2.239377
