19
Iteration:  2454charge 0 multiplicity 1
 O        -3.864548         4.414997         0.597138
 C        -3.478826         3.110753         1.078596
 C        -2.241180         3.128019         1.909249
 C        -1.826952         1.742386         2.538952
 C        -1.687962         1.240007         1.104149
 C        -0.266473         0.527661         0.955301
 C         0.393582         0.354163        -0.381968
 O         0.342033         1.098426        -1.350056
 C        -2.022425         2.678899         0.533502
 H        -4.216260         4.323102        -0.339837
 H        -4.224630         2.372782         1.297161
 H        -1.975882         4.135569         2.295970
 H        -0.842078         2.065059         3.069064
 H        -2.555037         1.413519         3.191381
 H        -2.321858         0.424796         0.809975
 H         0.628206         1.106611         1.391278
 H        -0.176714        -0.474021         1.452756
 H         1.049333        -0.630812        -0.535717
 H        -1.776699         3.289179        -0.273411
