19
Iteration:  1945
 O        -3.526125         4.689086         0.804585
 C        -3.255226         3.364720         1.024337
 C        -2.434258         3.016424         2.133979
 C        -2.315972         1.449517         2.314511
 C        -1.697732         1.362870         0.830688
 C        -0.297150         0.891437         0.841890
 C         0.073207         0.066265        -0.394327
 O         0.594576         0.612793        -1.334021
 C        -1.843161         2.835104         0.714210
 H        -3.806940         4.915838        -0.093881
 H        -4.086820         2.730155         0.832605
 H        -2.095141         3.713369         2.926621
 H        -1.546406         1.239262         3.029953
 H        -3.117883         0.803806         2.531533
 H        -2.460407         0.896731         0.133252
 H         0.358040         1.761868         0.976867
 H        -0.150458         0.246672         1.702294
 H        -0.095683        -0.994035        -0.298154
 H        -1.163588         3.633791         0.317175
