19
Iteration:   986
 O        -3.382562         4.865113         1.930636
 C        -3.240251         3.711587         1.039892
 C        -2.992085         2.373478         1.643715
 C        -2.599861         1.254630         0.648098
 C        -1.344388         2.115683         0.121199
 C         0.054383         1.515079         0.448320
 C         0.138085         0.217283        -0.399697
 O         0.411805        -0.883855         0.065167
 C        -1.829086         3.240116         1.068152
 H        -2.843981         5.540910         1.526343
 H        -3.456815         3.889845         0.031173
 H        -3.246433         2.121379         2.649797
 H        -2.170070         0.351649         1.291510
 H        -3.320331         0.853708        -0.113854
 H        -1.490865         2.319952        -1.002195
 H         0.749619         2.348729         0.475511
 H        -0.152767         1.251535         1.469955
 H        -0.053359         0.321975        -1.549368
 H        -1.046598         3.733205         1.699681
