19
Iteration:  4254
 O        -3.575340         4.536096         2.021717
 C        -2.670300         3.973825         1.050160
 C        -3.056533         2.563796         0.826185
 C        -2.007772         2.073735        -0.197557
 C        -0.837451         2.342159         0.758622
 C        -0.050248         1.064788         0.978618
 C        -0.080382         0.064416        -0.298760
 O        -0.507189        -1.081387        -0.265174
 C        -1.829820         2.921084         1.715374
 H        -3.132124         5.332045         2.437079
 H        -2.304313         4.725459         0.373505
 H        -3.920506         1.988904         1.066800
 H        -2.228876         0.941649        -0.479356
 H        -2.023965         2.510110        -1.229794
 H        -0.184256         3.226277         0.270073
 H         0.970773         1.410857         1.290844
 H        -0.475259         0.586514         1.939556
 H         0.309681         0.507690        -1.237449
 H        -1.656096         2.998455         2.711674
