19
Iteration:   630
 O        -3.341201         5.051373         1.381139
 C        -2.824363         3.883239         0.968007
 C        -3.271074         2.605648         1.567254
 C        -2.884901         1.323749         0.665261
 C        -1.465871         1.891466         0.539955
 C        -0.388928         0.772445         1.069003
 C         0.019919        -0.161946        -0.115665
 O         0.987865        -0.028842        -0.837831
 C        -1.685770         3.010740         1.549018
 H        -2.621452         5.727977         1.208200
 H        -2.759123         3.879297        -0.076822
 H        -3.632940         2.490710         2.587754
 H        -2.845505         0.370726         1.184485
 H        -3.550238         1.053206        -0.272039
 H        -1.006131         2.209619        -0.437337
 H         0.488358         1.221813         1.512138
 H        -0.881774         0.103961         1.887115
 H        -0.681651        -0.979813        -0.380774
 H        -1.145964         3.264554         2.384386
