19
Iteration:  1619
 O        -3.591411         4.770158         1.035948
 C        -3.133437         3.432832         0.856754
 C        -2.617651         2.895796         2.161827
 C        -2.401143         1.366552         2.003207
 C        -1.576238         1.568929         0.736384
 C        -0.156819         1.022443         0.818363
 C         0.528707         0.410281        -0.381427
 O        -0.010654        -0.158634        -1.314661
 C        -1.667648         3.101712         0.949038
 H        -3.808238         5.183195         0.183527
 H        -3.930880         2.847494         0.327619
 H        -2.843505         3.457243         3.092512
 H        -1.830311         1.012846         2.932612
 H        -3.342009         0.859057         2.109151
 H        -2.066737         0.930225        -0.025308
 H         0.651525         1.709803         1.154107
 H        -0.047640         0.090031         1.503642
 H         1.620477         0.332348        -0.079273
 H        -0.814779         3.805136         0.706613
