19
Iteration:   781
 O        -3.444115         5.069503         1.773418
 C        -3.040479         3.970194         1.046493
 C        -3.157426         2.608315         1.722290
 C        -3.025904         1.506715         0.628218
 C        -1.492579         1.906087         0.239095
 C        -0.343837         1.005235         0.720819
 C         0.104545        -0.187898        -0.300468
 O         1.265736        -0.552873        -0.406845
 C        -1.697183         3.031209         1.239184
 H        -3.199482         5.830533         1.186079
 H        -3.636855         3.905813         0.064123
 H        -3.332548         2.419370         2.858467
 H        -3.053217         0.541754         1.111039
 H        -3.861041         1.538951        -0.161932
 H        -1.270389         2.139747        -0.786381
 H         0.637030         1.623783         0.786162
 H        -0.381911         0.602441         1.782135
 H        -0.719796        -0.719012        -0.793172
 H        -0.785612         3.358011         1.769509
