19
Iteration:  2956charge 0 multiplicity 1
 O        -3.758714         4.824600         1.102166
 C        -3.404051         3.427122         1.134969
 C        -2.371773         3.084469         2.159384
 C        -2.168736         1.601049         2.270087
 C        -1.850495         1.428429         0.832840
 C        -0.478450         0.721227         0.529179
 C         0.018389         0.230065        -0.825024
 O         1.216073         0.108397        -1.022000
 C        -1.959523         2.930986         0.710284
 H        -3.925858         5.112851         0.166224
 H        -4.173029         2.636328         0.805675
 H        -2.050222         4.041164         2.766920
 H        -1.499991         1.267259         2.949811
 H        -3.062175         1.020676         2.558831
 H        -2.597001         0.874205         0.208930
 H         0.425421         1.238935         0.966791
 H        -0.450488        -0.255943         1.178056
 H        -0.647663         0.138773        -1.694449
 H        -1.062682         3.521160         0.263044
