19
Iteration:  3239charge 0 multiplicity 1
 O        -3.134892         4.841717         0.850301
 C        -3.117255         3.436328         0.978386
 C        -2.358758         2.910052         2.151030
 C        -2.511773         1.449053         2.322807
 C        -1.911782         1.150171         0.998479
 C        -0.410843         0.468125         0.906779
 C         0.405546         0.514024        -0.358765
 O         0.083929         0.836103        -1.512783
 C        -1.846308         2.649302         0.590420
 H        -2.688324         4.990045        -0.037613
 H        -4.037949         3.019083         0.724773
 H        -2.026310         3.672331         2.868472
 H        -1.890909         0.967626         3.181568
 H        -3.477694         1.072995         2.542409
 H        -2.475375         0.603262         0.240293
 H         0.140699         0.847747         1.771251
 H        -0.669766        -0.540760         1.256192
 H         1.480242         0.053537        -0.183728
 H        -0.852223         3.171188         0.330748
