19
Iteration:  4879
 O        -3.591725         4.614678         1.888396
 C        -2.387072         4.071636         1.448222
 C        -2.654975         3.178439         0.315735
 C        -1.358644         2.568762        -0.393116
 C        -1.000785         1.960189         1.018824
 C        -0.736103         0.444452         1.291969
 C        -0.324185        -0.611905         0.262772
 O        -0.276770        -0.380747        -0.971767
 C        -2.256543         2.625201         1.712245
 H        -3.539122         4.785430         2.852379
 H        -1.477228         4.628921         1.460147
 H        -3.587271         3.395213        -0.203396
 H        -1.849350         1.741096        -1.036410
 H        -0.539800         2.920242        -1.023134
 H        -0.214965         2.545298         1.587163
 H         0.086488         0.326556         2.034358
 H        -1.661099         0.130207         1.812282
 H        -0.065887        -1.618735         0.748203
 H        -2.980125         2.144824         2.424632
