19
Iteration:  3912charge 0 multiplicity 1
 O        -2.991354         5.067089         1.541782
 C        -2.575242         3.873295         0.894326
 C        -3.270472         2.720352         1.460600
 C        -3.216117         1.382170         0.656375
 C        -1.571185         1.669754         0.616667
 C        -0.475986         0.677158         0.965108
 C        -0.043330        -0.107377        -0.203828
 O         1.049853         0.092740        -0.834879
 C        -1.804292         2.825752         1.648753
 H        -2.228763         5.670625         1.737098
 H        -2.454548         3.965284        -0.153994
 H        -3.942949         3.242083         2.243967
 H        -3.399827         0.686223         1.363684
 H        -3.706411         1.318267        -0.298573
 H        -1.465664         2.139201        -0.395168
 H         0.454043         1.242471         1.304560
 H        -0.928228         0.064811         1.799214
 H        -0.870068        -0.749176        -0.642183
 H        -1.201801         2.969879         2.482476
