19
Iteration:   735
 O        -3.145001         5.009913         1.674357
 C        -2.926673         3.786455         0.841173
 C        -3.308023         2.618899         1.609943
 C        -2.949695         1.374820         0.749717
 C        -1.506451         1.897492         0.437845
 C        -0.402498         0.958244         0.726815
 C        -0.010694        -0.015859        -0.290674
 O         1.178264        -0.305975        -0.470578
 C        -1.807817         2.956499         1.435921
 H        -3.227913         5.757656         1.031689
 H        -2.954134         3.823942        -0.318585
 H        -3.960469         2.698364         2.446005
 H        -2.805062         0.609490         1.559518
 H        -3.666151         1.038392         0.043935
 H        -1.379436         2.374515        -0.477759
 H         0.619688         1.468968         0.799004
 H        -0.511520         0.420097         1.722125
 H        -0.785558        -0.395027        -0.974008
 H        -1.206639         3.609362         2.004937
