19
Iteration:  4337charge 0 multiplicity 1
 O        -3.337123         4.515225         2.336238
 C        -2.685796         4.084604         1.184611
 C        -3.170882         2.775395         0.588975
 C        -2.199146         2.310971        -0.519368
 C        -0.976335         2.360162         0.435930
 C        -0.349960         1.059262         0.811889
 C         0.094500        -0.065201        -0.111947
 O        -0.074784        -1.299963         0.080404
 C        -2.016226         2.776039         1.607705
 H        -2.630384         4.687823         2.970266
 H        -2.226866         4.861121         0.485849
 H        -4.255489         2.580449         0.703557
 H        -2.522962         1.380692        -0.931696
 H        -2.061570         3.131892        -1.274051
 H        -0.436965         3.195924         0.160924
 H         0.566413         1.359670         1.397206
 H        -1.063151         0.615209         1.470583
 H         0.534245         0.245824        -1.069375
 H        -2.001877         2.425989         2.699789
