19
Iteration:   169
 O        -3.419595         4.737754         1.936498
 C        -2.743292         3.960386         0.893545
 C        -3.191424         2.479701         1.107848
 C        -2.699213         1.700559        -0.082534
 C        -1.143947         2.069689         0.420512
 C        -0.234235         1.043463         1.140066
 C         0.538071         0.059928         0.225672
 O        -0.013157        -0.741321        -0.528747
 C        -1.776963         3.051058         1.496908
 H        -3.341656         5.650115         1.667006
 H        -2.491735         4.507831        -0.078697
 H        -4.115854         2.523071         1.734910
 H        -2.723023         0.589165        -0.211600
 H        -3.077586         2.204192        -0.878886
 H        -0.626540         2.671638        -0.398719
 H         0.496360         1.556673         1.790030
 H        -0.807446         0.396926         1.823241
 H         1.659680        -0.009152         0.360750
 H        -1.369597         3.153120         2.469899
