19
Iteration:  2922
 O        -3.774234         4.681645         1.141064
 C        -3.361326         3.324401         1.102299
 C        -2.295661         3.045734         2.139713
 C        -2.162798         1.534049         2.188868
 C        -1.783293         1.558622         0.717838
 C        -0.425346         0.932318         0.610810
 C         0.000573         0.368765        -0.722418
 O         1.088171        -0.118021        -0.997242
 C        -1.903233         3.082949         0.685959
 H        -4.352190         4.853345         0.337868
 H        -4.142321         2.551175         0.746516
 H        -2.320446         3.874380         2.891432
 H        -1.360387         1.109835         2.701333
 H        -3.124645         1.071938         2.334489
 H        -2.583030         1.261590         0.053290
 H         0.350387         1.420290         1.204894
 H        -0.649533         0.084750         1.181552
 H        -0.846586         0.419459        -1.432491
 H        -1.117196         3.765476         0.196861
