19
Iteration:  2575charge 0 multiplicity 1
 O        -3.508143         4.311321         0.380252
 C        -3.311251         3.001511         0.902316
 C        -2.371147         2.995182         2.052486
 C        -1.957032         1.733151         2.658869
 C        -1.580714         1.192039         1.205024
 C        -0.107266         0.814977         1.030154
 C         0.236113         0.546241        -0.428785
 O        -0.179519         1.112426        -1.423118
 C        -1.888740         2.587655         0.703673
 H        -3.582948         4.194821        -0.573250
 H        -4.307380         2.312421         0.890937
 H        -2.351061         4.018051         2.540259
 H        -0.892033         1.696413         3.239396
 H        -2.624677         1.222805         3.309494
 H        -2.165998         0.379123         0.530629
 H         0.491997         1.643073         1.393035
 H         0.138498        -0.050313         1.704345
 H         1.063351        -0.188971        -0.579131
 H        -1.349714         3.162831        -0.093705
