19
Iteration:  4118
 O        -3.181420         4.789612         1.927562
 C        -2.602446         3.954392         0.993622
 C        -3.255179         2.573343         1.125022
 C        -2.772281         1.686381         0.029612
 C        -1.156180         2.088619         0.432364
 C        -0.304880         0.937969         1.094197
 C         0.407570        -0.094081         0.225856
 O        -0.038555        -0.433444        -0.830149
 C        -1.852878         2.851196         1.612049
 H        -2.471981         5.367042         2.163678
 H        -2.184121         4.380713         0.037519
 H        -4.093192         2.436049         1.744326
 H        -3.060377         0.643859         0.104736
 H        -3.226510         1.983829        -0.897160
 H        -0.504589         2.700740        -0.326883
 H         0.311534         1.460002         1.797014
 H        -1.062539         0.381149         1.609784
 H         1.407696        -0.502097         0.607320
 H        -1.491504         3.054878         2.661312
