19
Iteration:   442charge 0 multiplicity 1
 O        -3.375154         4.739905         1.743890
 C        -2.774965         3.905261         0.739602
 C        -3.114994         2.432152         1.300405
 C        -2.666059         1.444958         0.296107
 C        -1.219769         1.964547         0.509670
 C        -0.171071         1.048798         1.199838
 C         0.249044        -0.089231         0.350600
 O         0.081283        -0.118716        -0.833594
 C        -1.757353         3.016885         1.375301
 H        -3.361766         5.665503         1.532618
 H        -2.984531         4.138229        -0.269062
 H        -3.743816         2.275461         2.213402
 H        -2.860890         0.346721         0.458946
 H        -2.966324         1.632472        -0.776557
 H        -0.640890         2.220261        -0.334058
 H         0.822648         1.613874         1.134654
 H        -0.138789         0.691874         2.349338
 H         0.762472        -0.967291         0.842569
 H        -1.057190         3.352645         2.236088
