19
Iteration:    50
 O        -3.573886         4.953435         1.634077
 C        -2.743066         3.924135         1.016995
 C        -3.124301         2.502686         0.979884
 C        -2.200300         1.699466         0.012618
 C        -0.938695         2.135061         0.850306
 C        -0.273381         0.787537         1.141156
 C         0.224491         0.297723        -0.150052
 O        -0.113356        -0.803828        -0.554301
 C        -1.856916         2.933455         1.845982
 H        -3.907809         5.482854         0.856385
 H        -2.252310         4.330319         0.092274
 H        -3.927165         1.976759         1.577132
 H        -2.367140         0.592024         0.266530
 H        -2.322991         2.046055        -1.102341
 H        -0.206309         2.749367         0.322869
 H         0.612562         0.784392         1.893366
 H        -0.974356         0.046469         1.626912
 H         0.804620         0.999788        -0.876454
 H        -1.854471         2.813730         2.930382
