19
Iteration:   167charge 0 multiplicity 1
 O        -3.403221         4.731228         1.943144
 C        -2.727238         3.952733         0.886145
 C        -3.193774         2.482877         1.098856
 C        -2.683770         1.692401        -0.069747
 C        -1.169792         2.076204         0.424562
 C        -0.235035         1.057010         1.143979
 C         0.540518         0.066073         0.220304
 O        -0.019017        -0.737619        -0.527939
 C        -1.788782         3.047349         1.514696
 H        -3.376543         5.647091         1.584412
 H        -2.446180         4.434161        -0.080917
 H        -4.185534         2.478729         1.687230
 H        -2.707178         0.585069        -0.225681
 H        -3.010929         2.210826        -0.952116
 H        -0.658945         2.607787        -0.471912
 H         0.452239         1.559673         1.747093
 H        -0.812249         0.430423         1.805076
 H         1.620070         0.017043         0.348915
 H        -1.357189         3.200088         2.517575
