19
Iteration:  1363charge 0 multiplicity 1
 O        -3.529165         4.747939         1.719410
 C        -3.296694         3.539374         1.063343
 C        -2.768687         2.460040         1.965084
 C        -2.302507         1.279457         1.052813
 C        -1.389375         2.079693         0.120708
 C         0.025753         1.577204         0.288371
 C         0.316412         0.051191         0.272394
 O         0.036061        -0.703012        -0.674502
 C        -1.795650         3.339114         0.872180
 H        -3.197339         5.579892         1.336464
 H        -3.873080         3.408010         0.198053
 H        -2.913867         2.536334         3.061367
 H        -1.840176         0.586742         1.756750
 H        -3.189374         0.684789         0.646391
 H        -1.604289         2.045888        -0.960965
 H         0.593535         1.987708        -0.550371
 H         0.442008         2.116685         1.212290
 H         0.996392        -0.379096         1.135375
 H        -1.332894         4.368151         1.043944
