19
Iteration:  4722charge 0 multiplicity 1
 O        -2.838707         5.005980         2.097951
 C        -2.361000         3.944003         1.266837
 C        -3.149769         3.044224         0.468908
 C        -2.245654         2.317929        -0.480011
 C        -1.415512         1.764172         0.725106
 C        -1.106398         0.329847         1.043703
 C         0.126576        -0.364370         0.482197
 O         0.510259        -0.161778        -0.685263
 C        -2.416946         2.451259         1.603269
 H        -2.440083         5.030688         3.019072
 H        -1.468401         4.145882         0.787320
 H        -4.160129         3.289979         0.206338
 H        -2.864028         1.575028        -0.882489
 H        -1.840037         2.906942        -1.312791
 H        -0.414612         2.370421         0.771185
 H        -1.047050         0.323751         2.178065
 H        -1.842422        -0.413969         0.798455
 H         0.685718        -1.081460         1.117881
 H        -2.833554         2.098373         2.612904
