19
Iteration:   146charge 0 multiplicity 1
 O        -3.211242         4.805016         1.880970
 C        -2.763730         3.898995         0.954855
 C        -3.276546         2.508549         0.949123
 C        -2.547669         1.603964        -0.042776
 C        -1.130879         2.090586         0.500420
 C        -0.273025         1.096126         1.089948
 C         0.430668         0.174753         0.197987
 O        -0.063972        -0.675697        -0.510469
 C        -1.846376         2.871240         1.571987
 H        -4.027897         5.224304         1.506967
 H        -2.531929         4.436551        -0.015894
 H        -4.167105         2.299498         1.617777
 H        -2.690172         0.561222         0.355726
 H        -2.791213         1.677172        -1.028194
 H        -0.640583         2.909138        -0.055776
 H         0.502226         1.642838         1.597967
 H        -0.776274         0.532192         1.877073
 H         1.563231         0.320372         0.185243
 H        -1.472830         2.967685         2.595626
