19
Iteration:  1560charge 0 multiplicity 1
 O        -3.500050         4.815172         1.065437
 C        -3.280998         3.450423         0.864455
 C        -2.752318         2.777768         2.118727
 C        -2.414720         1.197055         1.822815
 C        -1.399817         1.685060         0.697199
 C         0.154699         1.153446         0.805642
 C         0.567068         0.460878        -0.524968
 O        -0.215244        -0.335355        -1.006834
 C        -1.779686         3.149622         1.057250
 H        -2.994455         5.281601         0.411158
 H        -3.823941         2.736536         0.270116
 H        -2.863773         3.328923         3.061793
 H        -2.081779         0.621926         2.603280
 H        -3.373163         0.767362         1.476331
 H        -1.935933         1.361085        -0.274808
 H         0.719756         2.058550         1.147363
 H         0.113785         0.478042         1.724515
 H         1.404961         0.758261        -1.181497
 H        -1.191757         4.023576         0.923504
