19
Iteration:  1455
 O        -3.786843         4.757948         1.438350
 C        -3.271341         3.500903         1.000062
 C        -2.661502         2.632931         2.025566
 C        -2.231414         1.272292         1.373647
 C        -1.274077         2.029639         0.354462
 C         0.152179         1.450406         0.475364
 C         0.308037        -0.032120         0.037481
 O        -0.153578        -0.531523        -0.959148
 C        -1.711621         3.369548         1.020254
 H        -3.465468         5.403123         0.796607
 H        -3.795591         3.005619         0.155005
 H        -2.790795         2.809616         3.083999
 H        -1.501461         0.791828         2.134778
 H        -2.873617         0.466475         1.022433
 H        -1.704783         1.730604        -0.602681
 H         0.989196         2.031853         0.046485
 H         0.386597         1.475943         1.537374
 H         0.781361        -0.629977         0.859176
 H        -1.052504         4.190141         1.057161
