19
Iteration:   883charge 0 multiplicity 1
 O        -3.495188         4.809670         1.954498
 C        -3.213101         3.838576         0.983736
 C        -3.044867         2.514209         1.606088
 C        -2.695623         1.500912         0.570142
 C        -1.339449         2.242549         0.131892
 C        -0.033412         1.372836         0.299391
 C        -0.090486        -0.166575        -0.200405
 O         0.908401        -0.860445        -0.083450
 C        -1.730855         3.133161         1.312636
 H        -3.302007         5.655922         1.513419
 H        -3.583235         3.988643        -0.011217
 H        -3.545452         2.248237         2.495698
 H        -2.490084         0.515030         0.998898
 H        -3.446598         1.381638        -0.307200
 H        -1.439338         2.857378        -0.776733
 H         0.829659         1.976163         0.050824
 H         0.042824         1.176703         1.375528
 H        -1.129747        -0.523214        -0.292368
 H        -1.075530         3.871743         1.817623
