19
Iteration:  2414
 O        -3.677022         4.355208         0.530584
 C        -3.368647         3.041800         1.088761
 C        -2.123990         3.098942         1.921339
 C        -2.062985         1.767183         2.659266
 C        -1.738247         1.121956         1.189783
 C        -0.274026         0.803947         0.978517
 C         0.362358         0.494599        -0.412703
 O         0.291221         1.063376        -1.516413
 C        -2.060004         2.551773         0.548715
 H        -3.839980         4.178784        -0.390563
 H        -4.223192         2.389800         1.345897
 H        -1.804138         4.122114         2.369124
 H        -1.147719         1.579374         3.303537
 H        -2.896319         1.233221         3.270803
 H        -2.553927         0.404382         1.014441
 H         0.130211         1.771120         1.319408
 H         0.000306        -0.016533         1.643252
 H         1.030047        -0.360528        -0.285572
 H        -1.664735         3.057963        -0.345578
