19
Iteration:  3845
 O        -3.104725         5.027590         1.773845
 C        -2.866281         3.879831         1.005320
 C        -3.138975         2.620617         1.692950
 C        -2.996006         1.467182         0.512881
 C        -1.496829         1.907632         0.355944
 C        -0.576197         0.795123         0.878885
 C        -0.068059        -0.075818        -0.290133
 O         1.059002        -0.335112        -0.543560
 C        -1.668436         3.036700         1.320030
 H        -2.614854         5.775029         1.461005
 H        -3.234743         3.992286         0.020569
 H        -3.725672         2.487885         2.655966
 H        -3.112472         0.520185         0.884718
 H        -3.505878         1.590557        -0.437309
 H        -1.217452         2.144014        -0.749588
 H         0.352404         1.245483         1.361439
 H        -1.045748         0.155589         1.657545
 H        -0.816296        -0.508862        -0.978201
 H        -0.907042         3.533509         1.955422
