19
Iteration:  3601charge 0 multiplicity 1
 O        -3.336172         4.754589         1.951278
 C        -3.138121         3.705647         1.036486
 C        -2.733628         2.380485         1.693315
 C        -2.502844         1.186727         0.645600
 C        -1.326284         2.038383         0.174422
 C         0.080404         1.582208         0.447681
 C         0.361894         0.285451        -0.220512
 O        -0.408381        -0.708237        -0.187563
 C        -1.673159         3.196225         1.045494
 H        -2.698904         5.495370         1.686630
 H        -3.718193         3.726562         0.121263
 H        -3.113653         2.220113         2.758463
 H        -2.326698         0.131736         1.099993
 H        -3.274075         1.063621        -0.066991
 H        -1.519119         2.284921        -0.847167
 H         0.818215         2.295964         0.021326
 H         0.312564         1.338965         1.510791
 H         1.214228         0.154813        -0.803213
 H        -0.946804         3.615891         1.669017
