19
Iteration:  4850charge 0 multiplicity 1
 O        -3.402592         4.875768         1.906106
 C        -2.430950         4.008609         1.389185
 C        -2.823064         3.018599         0.282301
 C        -1.442814         2.427796        -0.297408
 C        -1.029082         1.836721         1.112649
 C        -0.775799         0.411218         1.321170
 C        -0.212358        -0.397491         0.192658
 O        -0.197570        -0.318232        -0.993038
 C        -2.358732         2.535628         1.667582
 H        -3.203073         5.066884         2.816954
 H        -1.357481         4.428744         1.215003
 H        -3.746055         3.034103        -0.263788
 H        -1.675142         1.643158        -0.979572
 H        -0.611364         3.134199        -0.566418
 H        -0.231326         2.516048         1.587374
 H        -0.292462         0.108396         2.242758
 H        -1.817465        -0.073164         1.400145
 H         0.096785        -1.348878         0.648012
 H        -3.025946         2.068024         2.475411
