19
Iteration:  2319charge 0 multiplicity 1
 O        -3.668388         4.305784         0.441606
 C        -3.189728         3.005282         0.771548
 C        -2.374497         3.060699         2.096442
 C        -2.018994         1.627604         2.572720
 C        -1.549654         1.215026         1.189835
 C        -0.137177         0.798880         1.015133
 C         0.376749         0.693655        -0.388012
 O        -0.327644         0.875103        -1.387926
 C        -1.738899         2.723923         0.761893
 H        -3.753692         4.509122        -0.486602
 H        -3.910161         2.149294         0.541901
 H        -2.210461         4.126786         2.526522
 H        -1.213679         1.654590         3.263707
 H        -2.820112         1.096583         3.098527
 H        -2.131541         0.640878         0.429898
 H         0.597019         1.580193         1.451385
 H         0.153278        -0.211216         1.536160
 H         1.452304         0.377503        -0.439620
 H        -0.992931         3.291129         0.148993
