19
Iteration:  2636charge 0 multiplicity 1
 O        -3.561889         4.339847         0.438664
 C        -3.216471         3.092638         0.963046
 C        -2.255280         3.011422         2.084375
 C        -2.046312         1.561225         2.473479
 C        -1.526693         1.235493         1.044269
 C        -0.117350         0.891710         1.016181
 C         0.392268         0.873528        -0.361044
 O        -0.434830         0.716998        -1.238461
 C        -1.813535         2.606398         0.604912
 H        -3.736974         4.262468        -0.486581
 H        -3.986174         2.378752         0.973601
 H        -1.848781         3.945182         2.669760
 H        -1.375600         1.400580         3.241681
 H        -3.195841         1.239944         2.559973
 H        -2.049358         0.402885         0.581141
 H         0.532893         1.623354         1.737969
 H         0.028539        -0.079027         1.512595
 H         1.449626         1.096261        -0.556854
 H        -1.219210         3.157654        -0.172431
