19
Iteration:  1456charge 0 multiplicity 1
 O        -3.788288         4.761846         1.437099
 C        -3.269286         3.505509         0.997644
 C        -2.663436         2.627838         2.027797
 C        -2.237101         1.270636         1.381359
 C        -1.271712         2.026756         0.356915
 C         0.145243         1.445474         0.477218
 C         0.319187        -0.028901         0.033109
 O        -0.156749        -0.529783        -0.961820
 C        -1.712293         3.371939         1.022715
 H        -3.445527         5.398808         0.779959
 H        -3.808371         2.997821         0.138842
 H        -2.767664         2.815847         3.068199
 H        -1.538979         0.781292         2.137279
 H        -2.845464         0.431616         1.042006
 H        -1.724554         1.736834        -0.631335
 H         1.009754         2.026810         0.065498
 H         0.446020         1.465106         1.515957
 H         0.793332        -0.638913         0.875466
 H        -1.076394         4.222300         1.042494
