19
Iteration:  3853charge 0 multiplicity 1
 O        -3.056129         5.084908         1.751570
 C        -2.889486         3.885457         1.005919
 C        -3.220148         2.547745         1.661600
 C        -2.932784         1.524323         0.555438
 C        -1.457184         1.874353         0.416469
 C        -0.557559         0.716457         0.852062
 C        -0.132239        -0.004856        -0.297135
 O         1.070628        -0.268393        -0.550468
 C        -1.718993         3.005356         1.291951
 H        -2.499351         5.732359         1.367114
 H        -3.128528         3.863243        -0.101885
 H        -3.579212         2.636506         2.639912
 H        -3.017641         0.403878         0.808269
 H        -3.706360         1.453419        -0.285337
 H        -1.123362         2.043109        -0.550177
 H         0.305391         1.184525         1.433191
 H        -0.982763        -0.096504         1.548057
 H        -0.948618        -0.657713        -0.751864
 H        -0.940101         3.386205         2.063268
