19
Iteration:  1512
 O        -3.551005         4.734747         1.218041
 C        -3.126528         3.486016         0.783292
 C        -2.631857         2.623274         2.095195
 C        -2.481115         1.177616         1.733209
 C        -1.446839         1.785691         0.554029
 C        -0.000309         1.422245         0.660038
 C         0.516710         0.312124        -0.294634
 O        -0.247752        -0.365289        -0.928376
 C        -1.690875         3.210455         1.061049
 H        -3.527634         5.301509         0.400636
 H        -3.627427         3.000587        -0.151367
 H        -2.951542         3.102027         3.013593
 H        -1.755712         0.575482         2.398333
 H        -3.420648         0.527748         1.584530
 H        -1.850101         1.427139        -0.514590
 H         0.777007         2.206907         0.307794
 H         0.402805         1.142463         1.622798
 H         1.584786         0.255696        -0.534084
 H        -0.868743         3.922051         1.332784
