19
Iteration:    42charge 0 multiplicity 1
 O        -3.555814         4.984755         1.661212
 C        -2.755884         3.946223         0.984525
 C        -3.140411         2.441880         1.010051
 C        -2.230169         1.736698         0.010906
 C        -0.920636         2.180087         0.831683
 C        -0.232005         0.784739         1.217493
 C         0.243698         0.228480        -0.155482
 O        -0.095436        -0.845656        -0.577304
 C        -1.867974         2.915066         1.837096
 H        -4.217539         5.309024         0.984983
 H        -2.299078         4.364915         0.102595
 H        -4.126544         2.182939         1.473883
 H        -2.359933         0.718351        -0.195722
 H        -2.254542         2.011904        -1.073002
 H        -0.213498         2.912141         0.327144
 H         0.548319         0.858858         1.954239
 H        -0.989122         0.033794         1.435938
 H         0.663208         1.083785        -0.845737
 H        -1.822655         3.071555         2.887845
