19
Iteration:  4962charge 0 multiplicity 1
 O        -3.622936         4.454094         1.918641
 C        -2.492650         3.976274         1.259036
 C        -2.593647         2.962579         0.180905
 C        -1.220220         2.746826        -0.316915
 C        -0.790815         2.126675         1.137735
 C        -0.648144         0.493661         1.306580
 C        -0.650112        -0.534482         0.272096
 O        -0.468869        -0.340792        -0.902779
 C        -2.076779         2.615548         1.666515
 H        -3.449118         4.504040         2.902571
 H        -1.755232         4.794145         1.042135
 H        -3.561186         2.538018        -0.153160
 H        -1.124042         2.022251        -1.092350
 H        -0.726725         3.693293        -0.538671
 H         0.080235         2.534396         1.828082
 H         0.254399         0.142095         1.815685
 H        -1.447631         0.187924         2.051314
 H        -0.906076        -1.567656         0.533403
 H        -2.578947         2.274275         2.487796
