19
Iteration:   131charge 0 multiplicity 1
 O        -3.208914         4.958880         1.872173
 C        -2.715693         3.936354         0.929570
 C        -3.280462         2.443186         0.949471
 C        -2.531454         1.509945        -0.033818
 C        -1.112350         2.169233         0.501076
 C        -0.145618         1.046862         1.239711
 C         0.489353         0.207475         0.105683
 O        -0.141835        -0.669018        -0.525164
 C        -2.001278         2.844432         1.567341
 H        -4.192742         4.881774         2.040444
 H        -2.310861         4.320243         0.028882
 H        -4.182586         2.154985         1.412437
 H        -2.524362         0.504368         0.329723
 H        -2.820470         1.465579        -1.191358
 H        -0.471039         2.678668        -0.256429
 H         0.584828         1.483342         1.918416
 H        -0.820342         0.402117         1.793180
 H         1.521805         0.390279        -0.202097
 H        -1.929218         2.774703         2.689505
