19
Iteration:  3874
 O        -2.972526         5.092472         1.656862
 C        -2.879951         3.913376         0.953736
 C        -3.180521         2.607685         1.620353
 C        -3.033665         1.407235         0.580087
 C        -1.487115         1.851106         0.475825
 C        -0.552113         0.667468         0.951932
 C        -0.111665        -0.110114        -0.280262
 O         1.081053        -0.105602        -0.670995
 C        -1.744681         2.958914         1.476267
 H        -2.214045         5.695839         1.389660
 H        -3.155846         3.921249        -0.178069
 H        -3.878555         2.503109         2.408182
 H        -3.404408         0.386183         1.077143
 H        -3.548254         1.299449        -0.455458
 H        -1.264434         2.097977        -0.511820
 H         0.364035         1.052176         1.467134
 H        -1.102486         0.172530         1.787550
 H        -0.825347        -0.397422        -1.121688
 H        -1.114777         3.530587         2.249284
