19
Iteration:  2601charge 0 multiplicity 1
 O        -3.537284         4.389518         0.458495
 C        -3.223535         3.020753         0.840007
 C        -2.323171         3.009483         2.010768
 C        -2.074791         1.681069         2.626929
 C        -1.529808         1.138646         1.268701
 C        -0.055857         0.896298         0.990359
 C         0.358764         0.676243        -0.427494
 O        -0.370821         1.004919        -1.342825
 C        -1.849349         2.468217         0.629113
 H        -3.488779         4.427167        -0.491296
 H        -4.073155         2.365413         0.664413
 H        -2.214218         3.958206         2.437379
 H        -1.342393         1.574284         3.461126
 H        -2.944288         1.089029         3.017245
 H        -2.024403         0.282255         0.732679
 H         0.445701         1.850675         1.387061
 H         0.217750         0.049730         1.607281
 H         1.302984         0.137178        -0.563589
 H        -1.323800         2.883846        -0.198079
