19
Iteration:   575
 O        -3.067691         5.000337         1.696345
 C        -2.905165         3.819441         0.799568
 C        -3.263249         2.482495         1.390878
 C        -2.852873         1.244989         0.590229
 C        -1.419878         1.846660         0.449595
 C        -0.331994         1.015021         1.067677
 C        -0.022502        -0.124949         0.089414
 O         0.811775         0.014631        -0.764088
 C        -1.779721         2.972399         1.362738
 H        -2.842190         5.789348         1.204626
 H        -3.027590         4.118122        -0.193963
 H        -3.957408         2.366886         2.176543
 H        -2.811032         0.373262         1.219853
 H        -3.520380         1.033641        -0.340381
 H        -0.963103         2.151360        -0.437297
 H         0.573519         1.611903         1.249843
 H        -0.748485         0.502417         2.010334
 H        -0.710306        -1.049122         0.189367
 H        -1.289346         3.389897         2.215697
