19
Iteration:  3497charge 0 multiplicity 1
 O        -3.576514         4.801127         1.610501
 C        -3.085126         3.577671         1.011753
 C        -2.742830         2.571005         1.991102
 C        -2.400682         1.237374         1.204077
 C        -1.222493         1.959163         0.417713
 C         0.150486         1.437312         0.573132
 C         0.215730        -0.046275        -0.037349
 O        -0.340320        -0.446751        -1.017878
 C        -1.612932         3.297515         1.044393
 H        -3.314986         5.592247         1.058752
 H        -3.763585         3.313599         0.154725
 H        -3.005177         2.727695         3.066011
 H        -2.109486         0.424172         1.810758
 H        -3.347496         0.946197         0.610207
 H        -1.473781         1.844571        -0.766247
 H         0.805052         2.009135        -0.124815
 H         0.669419         1.526501         1.665857
 H         0.972453        -0.801613         0.474030
 H        -0.737266         3.923787         1.317975
