19
Iteration:  1124
 O        -3.715860         4.648570         1.542399
 C        -3.018180         3.616235         0.868571
 C        -2.776562         2.367591         1.790478
 C        -2.379129         1.154938         1.054024
 C        -1.226502         2.013353         0.270287
 C         0.181209         1.559912         0.573106
 C         0.288602         0.387216        -0.366661
 O        -0.346787        -0.615609        -0.269207
 C        -1.619722         3.235237         1.225343
 H        -3.226752         5.505899         1.442195
 H        -3.260416         3.414603        -0.236376
 H        -3.073675         2.713408         2.811320
 H        -1.782310         0.420177         1.575059
 H        -3.176224         0.655521         0.572497
 H        -1.579453         2.233691        -0.804033
 H         0.820586         2.475145         0.364176
 H         0.362524         1.186957         1.586443
 H         0.971656         0.573209        -1.144436
 H        -0.804603         3.846242         1.707305
