19
Iteration:  3150charge 0 multiplicity 1
 O        -3.211826         4.626584         0.595469
 C        -2.995232         3.285256         0.876121
 C        -2.210232         3.090735         2.070217
 C        -2.278517         1.582219         2.493749
 C        -1.846469         1.117511         1.009424
 C        -0.729575         0.061859         0.835803
 C         0.036851         0.355601        -0.593750
 O         0.206613         1.498714        -0.961136
 C        -1.673220         2.624024         0.669103
 H        -3.285851         4.668454        -0.389103
 H        -3.855046         2.682681         0.764771
 H        -1.665838         3.829592         2.607115
 H        -1.583699         1.201054         3.363292
 H        -3.279530         1.303131         2.812668
 H        -2.746103         0.767936         0.429666
 H         0.116771         0.177545         1.475605
 H        -0.905098        -0.972253         0.858194
 H         0.339128        -0.533007        -1.255669
 H        -1.011307         3.108549         0.038846
