19
Iteration:  2985charge 0 multiplicity 1
 O        -3.560547         4.794359         0.972786
 C        -3.350102         3.371627         1.160520
 C        -2.341570         3.041541         2.198335
 C        -2.248994         1.574534         2.356584
 C        -1.955648         1.396418         0.848250
 C        -0.492461         0.706060         0.643407
 C         0.025331         0.302331        -0.731461
 O         1.183165         0.297247        -1.129740
 C        -2.080152         2.868100         0.646741
 H        -3.431567         5.052752         0.017153
 H        -4.176305         2.756403         0.834492
 H        -1.967794         3.826018         2.794422
 H        -1.317925         1.256957         3.042579
 H        -3.086239         1.060641         2.821494
 H        -2.559370         0.751300         0.160677
 H         0.300241         1.174983         1.152784
 H        -0.513489        -0.362432         0.999299
 H        -0.758970         0.083307        -1.522150
 H        -1.427210         3.417019        -0.068863
