19
Iteration:  2404charge 0 multiplicity 1
 O        -3.656643         4.331205         0.512040
 C        -3.384955         3.081571         1.033147
 C        -2.119920         3.106593         1.980285
 C        -1.975449         1.706678         2.620550
 C        -1.775565         1.125365         1.141903
 C        -0.299116         0.903930         0.976829
 C         0.338008         0.528498        -0.393873
 O         0.220421         1.051990        -1.456211
 C        -2.019816         2.475025         0.627214
 H        -3.898059         4.225951        -0.428069
 H        -4.310630         2.478679         1.329072
 H        -1.775915         4.155125         2.341387
 H        -1.192150         1.551112         3.346600
 H        -3.037684         1.480465         2.967245
 H        -2.251381         0.214751         0.659916
 H         0.243282         1.738509         1.298711
 H         0.140470         0.121167         1.566570
 H         1.054087        -0.393904        -0.342793
 H        -1.483425         2.784032        -0.302648
