19
Iteration:  3663
 O        -3.527852         4.721151         2.070283
 C        -3.052129         3.776072         1.116095
 C        -2.778451         2.402999         1.658715
 C        -2.642110         1.398763         0.483491
 C        -1.254425         2.255757         0.120017
 C         0.114102         1.433761         0.364356
 C         0.101203         0.136742        -0.423179
 O         0.017754        -1.023692         0.068755
 C        -1.600945         3.299011         1.095213
 H        -3.316451         5.660782         1.756448
 H        -3.541689         3.968211         0.113447
 H        -2.986425         2.153228         2.727686
 H        -2.585946         0.364723         1.007050
 H        -3.534761         1.350599        -0.211903
 H        -1.131920         2.698924        -0.965343
 H         0.898232         2.126623         0.007333
 H         0.232114         1.316487         1.531491
 H        -0.012436         0.336555        -1.450375
 H        -0.837763         3.981732         1.535729
