19
Iteration:   749
 O        -3.237247         4.990656         1.650700
 C        -2.892502         3.928190         0.928997
 C        -3.253297         2.583711         1.634124
 C        -3.061463         1.363043         0.769352
 C        -1.559382         1.901621         0.401495
 C        -0.333636         1.008577         0.693456
 C         0.061300        -0.079492        -0.348963
 O         1.226201        -0.405994        -0.451288
 C        -1.770176         3.082903         1.419509
 H        -3.405447         5.727688         1.080175
 H        -3.205386         4.038953        -0.118846
 H        -3.754442         2.628127         2.664408
 H        -3.042298         0.388574         1.234751
 H        -3.672066         1.319119        -0.202391
 H        -1.445454         2.210993        -0.679167
 H         0.468873         1.618413         1.081531
 H        -0.609699         0.375232         1.509979
 H        -0.721885        -0.805378        -0.692292
 H        -1.009761         3.271131         2.180232
