19
Iteration:  1043charge 0 multiplicity 1
 O        -3.612503         4.781233         1.807959
 C        -3.117406         3.750935         0.995919
 C        -2.696153         2.421292         1.791771
 C        -2.625049         1.263710         0.804835
 C        -1.399346         2.097730         0.082472
 C        -0.031843         1.389749         0.480425
 C         0.488732         0.289989        -0.309610
 O         0.070386        -0.855203        -0.126268
 C        -1.712370         3.260475         1.100605
 H        -3.695501         5.684440         1.392501
 H        -3.638988         3.574334         0.054192
 H        -2.845225         2.363464         2.860053
 H        -2.255590         0.263581         1.202265
 H        -3.484535         0.971467         0.157055
 H        -1.688670         2.391970        -1.011880
 H         0.651102         2.188436         0.334450
 H        -0.056542         1.252193         1.586988
 H         1.308170         0.499193        -1.011256
 H        -0.833228         3.872053         1.410932
