19
Iteration:  3305
 O        -3.181913         4.867172         1.053525
 C        -3.112393         3.435007         0.901804
 C        -2.432389         2.797517         2.134590
 C        -2.557568         1.272820         1.964629
 C        -1.701756         1.377377         0.714427
 C        -0.271696         0.831525         0.980621
 C         0.460971         0.573509        -0.385894
 O        -0.194548         0.243383        -1.335265
 C        -1.710822         2.895657         0.896608
 H        -3.342109         5.272034         0.209632
 H        -3.876380         2.918478         0.399588
 H        -2.363150         3.437688         3.062107
 H        -2.142577         0.600463         2.790718
 H        -3.553061         1.033331         1.823138
 H        -2.177893         0.894016        -0.130010
 H         0.385770         1.588338         1.479735
 H        -0.170776        -0.230266         1.496140
 H         1.553170         0.659473        -0.522505
 H        -0.714363         3.462490         0.598301
