19
Iteration:  4329
 O        -3.361000         4.485708         2.269260
 C        -2.618250         4.052578         1.194293
 C        -3.143592         2.804320         0.648598
 C        -2.250044         2.330205        -0.512271
 C        -1.022247         2.401285         0.498986
 C        -0.296225         1.065898         0.833436
 C         0.071747        -0.078631        -0.114849
 O        -0.120994        -1.246693         0.079434
 C        -2.007464         2.741898         1.553409
 H        -2.704800         4.638999         2.940794
 H        -2.100876         4.891245         0.708260
 H        -4.091731         2.336310         0.695522
 H        -2.302241         1.381948        -0.964804
 H        -2.327161         2.902943        -1.430430
 H        -0.288026         3.197228         0.163230
 H         0.659873         1.243223         1.296490
 H        -0.953846         0.589321         1.563137
 H         0.582755         0.303789        -1.032288
 H        -1.910134         2.428079         2.514730
