19
Iteration:  1078charge 0 multiplicity 1
 O        -3.547719         4.738056         1.715754
 C        -3.277684         3.610163         0.939266
 C        -2.746651         2.435106         1.846340
 C        -2.473440         1.268063         0.890926
 C        -1.306367         2.119053         0.213553
 C         0.166088         1.475819         0.587672
 C         0.444006         0.269951        -0.298090
 O        -0.122783        -0.837526        -0.270804
 C        -1.766530         3.294930         1.078718
 H        -3.563362         5.571855         1.177778
 H        -3.913549         3.528753         0.015113
 H        -3.050636         2.314858         2.988193
 H        -2.125769         0.474315         1.422659
 H        -3.230839         0.950117         0.172976
 H        -1.298892         2.502540        -0.926115
 H         0.954935         2.096535         0.207773
 H         0.271677         1.366260         1.699035
 H         1.135449         0.475858        -1.104586
 H        -1.263253         4.194275         1.362944
