19
Iteration:   504charge 0 multiplicity 1
 O        -3.436096         4.988911         1.702421
 C        -3.019406         3.889116         0.926779
 C        -3.179657         2.528069         1.455111
 C        -2.851751         1.518851         0.399494
 C        -1.267580         1.960453         0.457163
 C        -0.231140         0.940212         1.068870
 C         0.260815        -0.257766         0.229064
 O         0.656076        -0.327622        -0.924965
 C        -1.689940         3.115073         1.403502
 H        -2.669837         5.555738         1.626462
 H        -3.155996         4.050312        -0.183218
 H        -3.730582         2.280890         2.367488
 H        -3.193613         0.432234         0.543884
 H        -3.386748         1.769186        -0.561298
 H        -0.955016         2.225107        -0.630015
 H         0.602391         1.602155         1.327158
 H        -0.630785         0.521213         1.928724
 H         0.083306        -1.201393         0.849737
 H        -1.050764         3.447669         2.220246
