19
Iteration:   790
 O        -3.410788         5.016052         1.794579
 C        -3.135343         3.871147         1.037786
 C        -3.090222         2.626133         1.714573
 C        -2.953861         1.511265         0.600743
 C        -1.509866         1.920421         0.241634
 C        -0.266164         1.013074         0.663077
 C         0.053317        -0.187877        -0.270811
 O         1.216205        -0.540753        -0.348472
 C        -1.719406         3.167270         1.199059
 H        -3.006901         5.839237         1.439572
 H        -3.526042         3.858110        -0.054003
 H        -3.318155         2.451000         2.792651
 H        -3.093160         0.505847         1.052948
 H        -3.750955         1.611346        -0.098558
 H        -1.445573         2.126714        -0.784497
 H         0.776143         1.496320         0.815017
 H        -0.577594         0.353223         1.569080
 H        -0.794716        -0.698013        -0.807690
 H        -0.982868         3.381590         1.934696
