19
Iteration:   515
 O        -3.402370         4.910865         1.667811
 C        -2.884353         3.890473         0.905069
 C        -3.204207         2.546138         1.557884
 C        -2.885958         1.585517         0.383878
 C        -1.429162         1.869856         0.476217
 C        -0.167212         0.955286         1.046778
 C         0.257999        -0.315547         0.220103
 O         0.695281        -0.278376        -0.896913
 C        -1.756877         3.148733         1.322070
 H        -2.855122         5.640354         2.025789
 H        -3.172099         3.977552        -0.198933
 H        -3.865707         2.457542         2.445188
 H        -3.039341         0.447868         0.561582
 H        -3.383972         1.990987        -0.530338
 H        -0.945686         2.358444        -0.481378
 H         0.668636         1.547371         1.421724
 H        -0.526226         0.534649         1.908503
 H         0.114106        -1.340550         0.706252
 H        -1.154194         3.687540         2.068336
