19
Iteration:  4953
 O        -3.621251         4.408072         1.949781
 C        -2.461810         4.050638         1.314038
 C        -2.643638         2.979851         0.220419
 C        -1.187989         2.776231        -0.335900
 C        -0.744565         2.093146         1.086489
 C        -0.720271         0.511011         1.446559
 C        -0.693673        -0.500063         0.259105
 O        -0.423154        -0.394927        -0.951501
 C        -2.121031         2.612294         1.566024
 H        -3.395301         4.338559         2.928719
 H        -1.821416         4.798369         0.985208
 H        -3.604310         2.664008        -0.223432
 H        -0.937082         2.020963        -1.092620
 H        -0.714422         3.648911        -0.670478
 H         0.170837         2.505589         1.418205
 H         0.278795         0.302253         1.908137
 H        -1.441483         0.216918         2.156783
 H        -0.696415        -1.548654         0.762082
 H        -2.607028         2.144778         2.378181
