19
Iteration:  4227
 O        -3.642214         4.695073         1.915201
 C        -2.714561         3.881063         1.093313
 C        -2.966145         2.468295         0.949984
 C        -2.101287         1.986194        -0.222616
 C        -0.790187         2.268111         0.631002
 C        -0.062908         0.916008         1.062199
 C        -0.067514         0.192026        -0.184216
 O        -0.536346        -0.879939        -0.351380
 C        -1.704434         2.873770         1.723124
 H        -3.013007         5.375301         2.269865
 H        -2.312037         4.588912         0.313135
 H        -3.884947         1.880851         1.171543
 H        -2.310536         0.970961        -0.409872
 H        -2.269898         2.587538        -1.112067
 H        -0.128311         2.963500         0.065502
 H         0.878287         1.065882         1.555633
 H        -0.612601         0.510452         1.881483
 H         0.453224         0.828018        -1.009808
 H        -1.415862         2.720301         2.853363
