19
Iteration:   173
 O        -3.447745         4.746305         1.918718
 C        -2.777021         3.978925         0.912401
 C        -3.183337         2.492204         1.127847
 C        -2.704391         1.700827        -0.085732
 C        -1.108701         2.074207         0.409678
 C        -0.229927         1.015854         1.128487
 C         0.530413         0.041542         0.235870
 O        -0.000183        -0.742635        -0.527636
 C        -1.756270         3.038127         1.454710
 H        -3.269088         5.719216         1.812549
 H        -2.641363         4.565599         0.006824
 H        -3.981663         2.525528         1.810552
 H        -2.817116         0.637561        -0.146165
 H        -3.207636         2.247945        -1.004316
 H        -0.540582         2.716941        -0.223929
 H         0.537173         1.550862         1.815555
 H        -0.817641         0.355586         1.835178
 H         1.674967        -0.020679         0.375682
 H        -1.352938         3.105400         2.484090
