19
Iteration:  3139charge 0 multiplicity 1
 O        -3.188949         4.631609         0.559326
 C        -3.099291         3.220019         0.832785
 C        -2.108778         3.025393         2.104212
 C        -2.292480         1.549828         2.575787
 C        -1.871048         1.173924         1.024339
 C        -0.697402         0.103344         0.775688
 C        -0.037450         0.383621        -0.564162
 O         0.287929         1.497917        -0.978076
 C        -1.687375         2.627551         0.666842
 H        -3.077233         4.887293        -0.335172
 H        -3.939109         2.601452         0.675298
 H        -1.905899         4.015855         2.509746
 H        -1.320969         1.163329         3.241292
 H        -3.241944         1.185782         2.970313
 H        -2.710847         0.715513         0.404019
 H        -0.103124         0.325164         1.616174
 H        -1.157046        -0.831648         0.924640
 H         0.023112        -0.580698        -1.184146
 H        -0.936414         3.084008         0.072520
