19
Iteration:   725
 O        -3.072132         4.994805         1.624129
 C        -2.987285         3.816469         0.822173
 C        -3.310359         2.545536         1.542736
 C        -2.909092         1.322100         0.777210
 C        -1.540494         1.856116         0.422354
 C        -0.356727         0.933544         0.834433
 C        -0.033983        -0.006838        -0.303184
 O         1.114370        -0.250121        -0.508192
 C        -1.808606         3.056105         1.538978
 H        -2.960792         5.731687         1.005276
 H        -3.072949         4.058806        -0.316069
 H        -4.065372         2.631553         2.312693
 H        -2.719082         0.475418         1.496276
 H        -3.577073         0.933466         0.011569
 H        -1.398983         2.116916        -0.612215
 H         0.519850         1.626974         1.001098
 H        -0.514376         0.505430         1.839754
 H        -0.763730        -0.129413        -1.140657
 H        -1.053705         3.445872         2.156386
