19
Iteration:   415
 O        -3.466744         4.873003         1.690718
 C        -2.890454         3.842530         0.833161
 C        -3.148997         2.396207         1.201812
 C        -2.508342         1.429657         0.271173
 C        -1.046810         1.985188         0.488627
 C        -0.067642         1.055755         1.258173
 C         0.330702        -0.069388         0.301398
 O        -0.187491        -0.151204        -0.829825
 C        -1.694304         3.010228         1.456078
 H        -2.741587         5.501723         1.769706
 H        -3.042997         4.088148        -0.262121
 H        -4.009200         2.200206         1.816791
 H        -2.574940         0.449794         0.786625
 H        -2.875608         1.219075        -0.750564
 H        -0.398174         2.300631        -0.401202
 H         0.779864         1.580370         1.815356
 H        -0.557345         0.494698         2.014528
 H         1.051534        -0.851491         0.574057
 H        -1.196238         3.261752         2.345436
