19
Iteration:  4985
 O        -3.685234         4.558293         1.777057
 C        -2.474414         4.005568         1.339087
 C        -2.573187         2.861779         0.328697
 C        -1.187414         2.533899        -0.223720
 C        -0.739112         2.060419         1.118803
 C        -0.564972         0.559430         1.389212
 C        -0.656522        -0.405432         0.185608
 O        -0.535316        -0.283498        -1.008188
 C        -2.150896         2.547518         1.717237
 H        -3.562977         4.919987         2.673557
 H        -1.739718         4.753614         1.067085
 H        -3.573636         2.762944        -0.108952
 H        -1.029378         1.699125        -0.911521
 H        -0.659716         3.405893        -0.515410
 H         0.254606         2.567953         1.493119
 H         0.392890         0.236243         1.817665
 H        -1.306641         0.240224         2.160937
 H        -0.798637        -1.450040         0.463732
 H        -2.647109         2.091414         2.498836
