19
Iteration:  3576charge 0 multiplicity 1
 O        -3.460589         4.754027         1.882138
 C        -3.061828         3.669681         1.062806
 C        -2.884313         2.418371         1.838330
 C        -2.557541         1.320557         0.788551
 C        -1.312945         2.085111         0.141245
 C         0.198552         1.507613         0.390231
 C         0.498758         0.075352        -0.197094
 O        -0.408208        -0.680324        -0.374332
 C        -1.666860         3.255413         1.079058
 H        -2.898065         5.561330         1.681436
 H        -3.549409         3.629175         0.048211
 H        -3.050146         2.306708         2.872857
 H        -2.297014         0.363923         1.295375
 H        -3.433395         1.024959         0.160403
 H        -1.687112         2.313982        -0.940851
 H         0.966803         2.196851        -0.045183
 H         0.371382         1.380870         1.587593
 H         1.495099        -0.276912        -0.425478
 H        -0.932966         3.905661         1.633760
