19
Iteration:  2428
 O        -3.741356         4.334488         0.593057
 C        -3.341073         3.138567         1.061493
 C        -2.250592         3.175357         2.044577
 C        -1.972327         1.792603         2.611687
 C        -1.792478         1.208867         1.197397
 C        -0.238781         0.688712         0.967942
 C         0.399837         0.423291        -0.450481
 O         0.352225         1.071160        -1.479952
 C        -2.133312         2.499475         0.480798
 H        -3.881875         4.277767        -0.399415
 H        -4.229461         2.394388         1.313925
 H        -1.787813         4.099954         2.317438
 H        -1.153725         1.836151         3.187882
 H        -2.885650         1.531339         3.162654
 H        -2.315020         0.244868         0.855268
 H         0.494528         1.335014         1.261574
 H         0.009761        -0.203639         1.564763
 H         1.164948        -0.451376        -0.462942
 H        -1.579357         2.944416        -0.408701
