19
Iteration:  2447
 O        -3.847486         4.444733         0.584662
 C        -3.469349         3.082573         1.079794
 C        -2.235980         3.182265         1.920667
 C        -1.864100         1.787076         2.551398
 C        -1.643566         1.172832         1.107762
 C        -0.254874         0.591392         0.879566
 C         0.417487         0.357160        -0.398207
 O         0.344878         1.087877        -1.373160
 C        -2.050380         2.585396         0.599862
 H        -4.119296         4.418118        -0.376137
 H        -4.251186         2.378485         1.322849
 H        -2.025618         4.224468         2.339097
 H        -0.880939         1.862030         3.166263
 H        -2.707214         1.251360         3.192145
 H        -2.425595         0.409205         0.932452
 H         0.466403         1.170328         1.615288
 H        -0.317170        -0.312504         1.497753
 H         0.975438        -0.553584        -0.454669
 H        -1.793653         3.149672        -0.348109
