19
Iteration:  4739
 O        -2.961305         4.931813         2.028324
 C        -2.192654         3.986000         1.292093
 C        -3.146807         3.103090         0.424302
 C        -2.211799         2.181845        -0.511650
 C        -1.332795         1.797918         0.800749
 C        -1.165607         0.220741         1.110142
 C         0.091700        -0.263414         0.432366
 O         0.437530        -0.113712        -0.739241
 C        -2.393889         2.533102         1.716940
 H        -2.494205         4.965900         2.916877
 H        -1.179324         4.441801         0.910858
 H        -4.249499         3.200578         0.439633
 H        -2.588225         1.244915        -1.059028
 H        -1.538050         2.754708        -1.194924
 H        -0.359518         2.203643         0.856288
 H        -1.177835        -0.087826         2.135298
 H        -2.101598        -0.193503         0.627858
 H         0.769281        -0.957514         1.104240
 H        -2.789159         2.226653         2.674666
