19
Iteration:   110charge 0 multiplicity 1
 O        -3.318926         5.019169         1.736387
 C        -2.750575         3.910448         0.936492
 C        -3.273231         2.530786         0.870245
 C        -2.410274         1.519379        -0.007393
 C        -1.156031         1.949030         0.750243
 C        -0.122540         0.960165         1.158555
 C         0.444395         0.300092        -0.003383
 O        -0.199765        -0.634066        -0.494154
 C        -1.917352         2.860164         1.680601
 H        -3.675133         4.553737         2.529514
 H        -2.318231         4.259395         0.029174
 H        -4.236254         2.253071         1.241797
 H        -2.583207         0.478579         0.053060
 H        -2.457273         1.694145        -1.052135
 H        -0.508562         2.561913         0.045938
 H         0.660762         1.508405         1.592608
 H        -0.508161         0.227775         1.843774
 H         1.472727         0.633668        -0.335367
 H        -1.659212         2.891949         2.772152
