19
Iteration:  4184
 O        -3.470614         4.660173         1.909615
 C        -2.687543         3.931109         1.034364
 C        -3.057338         2.541330         0.994075
 C        -2.317362         1.838043        -0.050116
 C        -0.917226         2.211855         0.610888
 C        -0.253634         0.972089         1.041255
 C         0.302033         0.054810        -0.058867
 O        -0.500316        -0.730880        -0.581593
 C        -1.743183         2.942577         1.703752
 H        -3.018204         5.365501         2.454537
 H        -2.281104         4.542483         0.170199
 H        -3.997503         2.179628         1.414543
 H        -2.484023         0.811357        -0.016747
 H        -2.427365         2.120989        -1.090862
 H        -0.197744         2.942044         0.022609
 H         0.630701         1.179541         1.669443
 H        -0.892151         0.300845         1.590605
 H         1.367429         0.016266        -0.287614
 H        -1.427336         3.336991         2.742896
