19
Iteration:  1722charge 0 multiplicity 1
 O        -3.331623         4.674216         0.708008
 C        -3.194699         3.296022         0.881211
 C        -2.323961         3.056106         2.094306
 C        -2.380256         1.453872         2.380491
 C        -1.760434         1.201361         0.942561
 C        -0.301179         0.656467         1.064401
 C         0.395279         0.400990        -0.341215
 O        -0.002832         0.778371        -1.408683
 C        -1.799436         2.732076         0.634658
 H        -3.597138         4.947125        -0.207110
 H        -4.148767         2.786311         0.745188
 H        -1.953201         3.807506         2.788036
 H        -1.661320         1.198652         3.120256
 H        -3.426237         1.101879         2.666558
 H        -2.311060         0.608498         0.250530
 H         0.330141         1.254146         1.806294
 H        -0.163372        -0.382209         1.461019
 H         1.483721         0.077433        -0.272370
 H        -1.155811         3.413319         0.140550
