19
Iteration:   567charge 0 multiplicity 1
 O        -3.136515         5.025799         1.706104
 C        -2.862764         3.897764         0.853687
 C        -3.291099         2.493694         1.409610
 C        -2.788671         1.166930         0.572894
 C        -1.393598         1.881981         0.353584
 C        -0.402799         1.004433         1.090284
 C         0.010817        -0.137754         0.136132
 O         0.819174        -0.033474        -0.808819
 C        -1.812471         2.934200         1.373782
 H        -2.736455         5.779071         1.248671
 H        -2.923457         4.176891        -0.260130
 H        -3.974256         2.572618         2.276631
 H        -2.646060         0.301985         1.150154
 H        -3.529044         1.150967        -0.162361
 H        -1.007959         2.337099        -0.570135
 H         0.523059         1.550420         1.330415
 H        -0.898138         0.777223         2.115230
 H        -0.490070        -1.120051         0.244808
 H        -1.053554         3.297366         2.001290
