19
Iteration:  4469charge 0 multiplicity 1
 O        -3.101928         4.972711         2.028444
 C        -2.397236         4.023329         1.183094
 C        -3.331256         2.955494         0.662739
 C        -2.347712         2.176098        -0.325372
 C        -1.318403         1.971153         0.764944
 C        -0.726530         0.651261         0.958904
 C        -0.148230        -0.043071        -0.232014
 O         0.734374        -0.920752        -0.224023
 C        -2.266544         2.612816         1.744206
 H        -2.423064         5.198599         2.691639
 H        -1.606200         4.448591         0.463243
 H        -4.407506         2.816589         0.903113
 H        -2.712544         1.381893        -0.896536
 H        -1.954381         2.844325        -1.137397
 H        -0.486886         2.711939         0.569483
 H        -0.055321         0.616317         1.892439
 H        -1.402267        -0.184515         1.217058
 H        -0.574080         0.256647        -1.194051
 H        -2.372335         2.482767         2.781270
