19
Iteration:  2065charge 0 multiplicity 1
 O        -3.880073         4.644252         1.125231
 C        -3.364629         3.378980         1.100505
 C        -2.386889         3.095516         2.152383
 C        -2.194601         1.617814         2.285524
 C        -1.749920         1.489622         0.808836
 C        -0.383239         0.908920         0.506084
 C         0.088124         0.428141        -0.896211
 O         1.102468        -0.286886        -0.981072
 C        -1.927777         3.133074         0.733100
 H        -4.158801         4.856700         0.195671
 H        -4.110198         2.676258         0.794395
 H        -2.042925         3.753807         2.964081
 H        -1.515996         1.410161         3.111851
 H        -3.140410         0.944616         2.664997
 H        -2.458793         1.035371         0.108560
 H         0.306234         1.626007         0.843709
 H        -0.100925         0.163641         1.263705
 H        -0.480680         0.855323        -1.695563
 H        -1.135220         3.918842         0.350410
