19
Iteration:   503charge 0 multiplicity 1
 O        -3.437365         4.995878         1.706666
 C        -3.025673         3.884760         0.926853
 C        -3.175452         2.529106         1.454098
 C        -2.851018         1.507362         0.396784
 C        -1.257494         1.968092         0.448174
 C        -0.241834         0.941565         1.069954
 C         0.258772        -0.252252         0.226025
 O         0.652671        -0.329988        -0.923209
 C        -1.688728         3.109779         1.412801
 H        -2.668704         5.555978         1.600821
 H        -3.153246         4.058975        -0.200910
 H        -3.721411         2.286315         2.350238
 H        -3.174823         0.454790         0.576881
 H        -3.335200         1.758935        -0.559473
 H        -0.930158         2.211829        -0.637146
 H         0.597120         1.575906         1.315950
 H        -0.620744         0.539711         1.948945
 H         0.098975        -1.192092         0.848984
 H        -1.072276         3.426427         2.212697
