19
Iteration:  4475charge 0 multiplicity 1
 O        -3.071557         4.996471         2.034277
 C        -2.397656         3.990019         1.201417
 C        -3.316327         2.960283         0.591524
 C        -2.367031         2.163624        -0.365414
 C        -1.352678         1.923620         0.795494
 C        -0.664326         0.626776         0.942448
 C        -0.158034        -0.044709        -0.235946
 O         0.739314        -0.872151        -0.207977
 C        -2.275091         2.612675         1.773176
 H        -2.508862         5.263731         2.819276
 H        -1.626144         4.468422         0.637846
 H        -4.356986         3.047305         0.859536
 H        -2.873615         1.205500        -0.753251
 H        -2.051409         2.808605        -1.180026
 H        -0.523419         2.620471         0.572128
 H         0.043488         0.683435         1.730697
 H        -1.554361        -0.011187         1.244297
 H        -0.677526         0.187816        -1.228199
 H        -2.483083         2.518309         2.881760
