19
Iteration:  2690charge 0 multiplicity 1
 O        -3.716237         4.463831         0.652769
 C        -3.292909         3.139885         0.898074
 C        -2.368746         3.111097         2.120129
 C        -2.142806         1.631037         2.575534
 C        -1.555510         1.325122         1.155446
 C        -0.128229         0.806096         0.963853
 C         0.437273         0.833787        -0.529486
 O        -0.012820         0.269159        -1.509577
 C        -1.841649         2.786203         0.701770
 H        -3.745050         4.686279        -0.287277
 H        -3.998561         2.312307         0.728146
 H        -2.539319         4.128181         2.710138
 H        -1.308785         1.554492         3.241885
 H        -3.070086         1.167509         3.019077
 H        -2.241936         0.575551         0.699201
 H         0.673282         1.365102         1.585510
 H         0.060672        -0.191718         1.252521
 H         1.480709         1.296170        -0.631506
 H        -1.276013         3.375375        -0.068049
