19
Iteration:  1075
 O        -3.543899         4.748650         1.714742
 C        -3.293086         3.616359         0.969235
 C        -2.748521         2.425851         1.843994
 C        -2.487993         1.280157         0.878467
 C        -1.298533         2.127890         0.190105
 C         0.147273         1.489282         0.600473
 C         0.450457         0.240200        -0.307830
 O        -0.102758        -0.855975        -0.267600
 C        -1.746409         3.302976         1.074319
 H        -3.610390         5.551115         1.207898
 H        -3.930067         3.445481         0.128442
 H        -3.103148         2.380310         2.856454
 H        -2.096734         0.385195         1.480192
 H        -3.166267         0.931042         0.046048
 H        -1.485970         2.514461        -0.832627
 H         0.862948         2.219755         0.246086
 H         0.215903         1.401848         1.695111
 H         1.158047         0.479825        -1.080485
 H        -1.113600         4.176254         1.348509
