19
Iteration:  2490charge 0 multiplicity 1
 O        -3.931430         4.218971         0.681611
 C        -3.329120         3.021259         0.959915
 C        -2.200769         3.178335         1.888702
 C        -1.867610         1.853389         2.513023
 C        -1.657839         1.312320         1.059147
 C        -0.355028         0.520973         0.929001
 C         0.280156         0.319454        -0.368934
 O         0.255969         1.153380        -1.269097
 C        -1.750735         2.820275         0.553384
 H        -4.380557         4.073002        -0.204156
 H        -4.028714         2.272701         1.054623
 H        -2.077785         4.150760         2.417866
 H        -0.906845         1.639267         3.111071
 H        -2.658694         1.361911         3.126251
 H        -2.474206         0.818952         0.628301
 H         0.505609         1.102971         1.513949
 H        -0.439859        -0.508046         1.305853
 H         0.868459        -0.709156        -0.354153
 H        -1.361841         3.153790        -0.441504
