19
Iteration:  3263
 O        -3.064205         4.838593         0.914895
 C        -3.176865         3.429756         0.917698
 C        -2.361632         2.869170         2.149493
 C        -2.510292         1.373204         2.222999
 C        -1.826911         1.186617         0.826013
 C        -0.395935         0.645440         0.925762
 C         0.431539         0.561792        -0.326128
 O        -0.031053         0.592346        -1.471988
 C        -1.806460         2.732337         0.793330
 H        -3.086894         5.119046         0.006977
 H        -4.076822         3.014114         0.503001
 H        -2.019453         3.509895         3.013753
 H        -1.943699         0.785223         3.077515
 H        -3.548242         0.951859         2.295558
 H        -2.353211         0.744796        -0.076162
 H         0.031554         1.305507         1.652782
 H        -0.504310        -0.297578         1.456029
 H         1.583633         0.480764        -0.214151
 H        -1.123693         3.525682         0.259084
