19
Iteration:   296charge 0 multiplicity 1
 O        -3.325478         4.731894         1.849281
 C        -2.713926         3.871989         0.839191
 C        -3.254300         2.480480         0.948992
 C        -2.429618         1.457066         0.086772
 C        -1.141833         2.139012         0.615480
 C        -0.073679         1.195912         1.176048
 C         0.422976         0.124304         0.117906
 O        -0.303825        -0.563704        -0.588848
 C        -1.841965         2.998914         1.619604
 H        -3.994109         5.252287         1.330866
 H        -2.285994         4.207935        -0.089067
 H        -4.174241         2.146926         1.488755
 H        -2.472246         0.347740         0.396161
 H        -2.648712         1.375299        -1.075877
 H        -0.661844         2.791814        -0.102734
 H         0.760803         1.774683         1.762850
 H        -0.438900         0.381481         1.933324
 H         1.477614        -0.125715         0.090854
 H        -1.445402         3.521891         2.474486
