19
Iteration:  4527charge 0 multiplicity 1
 O        -3.119776         4.967393         2.047925
 C        -2.199412         4.087101         1.235267
 C        -3.143010         3.117696         0.508099
 C        -2.548649         2.064427        -0.396577
 C        -1.418256         1.875197         0.719201
 C        -0.877386         0.417705         1.070988
 C        -0.220524        -0.271361        -0.113551
 O         0.965025        -0.557431        -0.331503
 C        -2.261393         2.687532         1.787939
 H        -2.719637         5.030481         2.960117
 H        -1.289577         4.729097         0.871010
 H        -4.220038         3.455139         0.569832
 H        -3.364618         1.288998        -0.370647
 H        -2.404493         2.474855        -1.446031
 H        -0.581232         2.346029         0.274193
 H        -0.162188         0.568289         1.897855
 H        -1.619980        -0.365711         1.388119
 H        -0.955489        -0.476367        -0.923363
 H        -2.473767         2.234089         2.812225
