19
Iteration:   143charge 0 multiplicity 1
 O        -3.202781         4.843538         1.891655
 C        -2.765355         3.903705         0.937604
 C        -3.284352         2.495362         0.940185
 C        -2.550432         1.586400        -0.032628
 C        -1.113986         2.112639         0.505346
 C        -0.246500         1.083799         1.121175
 C         0.430321         0.183099         0.171538
 O        -0.073634        -0.669414        -0.507073
 C        -1.876034         2.859445         1.561570
 H        -4.069009         5.088673         1.550246
 H        -2.460569         4.358349         0.003652
 H        -4.138908         2.302978         1.595778
 H        -2.563141         0.569638         0.333209
 H        -2.929661         1.583734        -1.109913
 H        -0.573251         2.907132        -0.090428
 H         0.534265         1.589744         1.624064
 H        -0.782591         0.513289         1.866788
 H         1.508818         0.336993         0.184095
 H        -1.553971         2.844736         2.655173
