19
Iteration:  2405
 O        -3.658109         4.334371         0.513418
 C        -3.388580         3.076499         1.036613
 C        -2.114079         3.106232         1.970515
 C        -1.981553         1.713706         2.632383
 C        -1.769390         1.127106         1.145770
 C        -0.303829         0.897532         0.979853
 C         0.339526         0.528093        -0.398454
 O         0.228908         1.051168        -1.460872
 C        -2.020305         2.482999         0.626780
 H        -3.886070         4.209319        -0.406921
 H        -4.337113         2.463436         1.339336
 H        -1.790612         4.136670         2.339550
 H        -1.220833         1.560075         3.305469
 H        -3.018430         1.457476         2.975291
 H        -2.282744         0.204568         0.673646
 H         0.198564         1.737048         1.298662
 H         0.146125         0.099663         1.546119
 H         1.071605        -0.414018        -0.347878
 H        -1.486701         2.810755        -0.323376
