19
Iteration:  3790
 O        -3.233676         4.984709         2.039489
 C        -2.970336         3.962550         1.006743
 C        -3.110454         2.549973         1.547889
 C        -2.931262         1.446504         0.530929
 C        -1.460884         2.086490         0.187931
 C        -0.348096         1.083675         0.555761
 C        -0.095567        -0.180211        -0.250464
 O         1.012497        -0.699190        -0.323422
 C        -1.721240         3.147017         1.286278
 H        -2.551912         5.634893         1.870292
 H        -3.131396         4.320920         0.021366
 H        -3.774886         2.422439         2.410953
 H        -2.815884         0.522931         0.968406
 H        -3.685349         1.374692        -0.260379
 H        -1.336579         2.417255        -0.963606
 H         0.696051         1.555109         0.414081
 H        -0.369331         0.689444         1.568016
 H        -1.020943        -0.597767        -0.822094
 H        -1.113246         3.517775         2.192014
