19
Iteration:  4392
 O        -3.452137         4.586513         2.152120
 C        -2.537177         4.124910         1.271404
 C        -3.178166         2.844755         0.694903
 C        -2.326997         2.356134        -0.432712
 C        -1.087823         2.268846         0.493324
 C        -0.793386         0.745196         0.851188
 C         0.074137        -0.073012        -0.154167
 O         0.329399        -1.286041        -0.050265
 C        -1.735339         2.939214         1.670119
 H        -3.031835         5.174711         2.767873
 H        -2.041640         4.893272         0.587588
 H        -4.200543         2.655975         0.974604
 H        -2.657306         1.424396        -0.833878
 H        -2.313860         3.133105        -1.284861
 H        -0.259562         2.825378         0.102420
 H        -0.217610         0.702067         1.844131
 H        -1.682787         0.222387         1.160679
 H         0.375066         0.491289        -1.108112
 H        -1.311326         2.743755         2.677413
