19
Iteration:  4496
 O        -3.083616         5.072632         2.048046
 C        -2.303604         4.038115         1.321146
 C        -3.209333         3.077276         0.527939
 C        -2.451790         2.043685        -0.345392
 C        -1.322229         1.956268         0.723192
 C        -0.765177         0.544921         1.026137
 C        -0.210349        -0.149255        -0.236513
 O         0.851033        -0.744306        -0.249940
 C        -2.372265         2.575666         1.717626
 H        -2.647078         5.138177         2.904583
 H        -1.335179         4.504398         0.915297
 H        -4.326672         3.206906         0.549945
 H        -3.169674         1.074184        -0.302630
 H        -2.340682         2.247705        -1.474104
 H        -0.540903         2.612359         0.421946
 H         0.111569         0.713962         1.633453
 H        -1.359287        -0.273125         1.586177
 H        -0.653198         0.048913        -1.239962
 H        -2.698199         2.015816         2.662297
