19
Iteration:   574
 O        -3.073451         5.005977         1.697465
 C        -2.902742         3.825905         0.802710
 C        -3.266732         2.483855         1.390374
 C        -2.842082         1.234560         0.590776
 C        -1.421153         1.848478         0.441247
 C        -0.341676         1.017985         1.072392
 C        -0.018851        -0.128114         0.092744
 O         0.812622         0.010371        -0.768685
 C        -1.782949         2.963150         1.360644
 H        -2.834457         5.790935         1.218653
 H        -3.016727         4.134862        -0.181928
 H        -3.962726         2.385217         2.181577
 H        -2.777159         0.336327         1.235920
 H        -3.551800         1.065506        -0.332583
 H        -0.929440         2.189103        -0.457689
 H         0.569294         1.603402         1.256160
 H        -0.765553         0.539077         1.995205
 H        -0.694417        -1.056342         0.199230
 H        -1.245784         3.399716         2.225890
