19
Iteration:  3480
 O        -3.487778         4.777045         1.508453
 C        -3.150886         3.563414         0.958848
 C        -2.604473         2.536390         1.987992
 C        -2.410520         1.226864         1.333835
 C        -1.340034         1.886183         0.401697
 C         0.116588         1.352118         0.649681
 C         0.254373        -0.040704        -0.043258
 O        -0.360410        -0.246529        -1.054155
 C        -1.662721         3.302101         1.044347
 H        -2.992853         5.440944         0.976888
 H        -3.710967         3.248659         0.079939
 H        -2.702517         2.763317         3.013457
 H        -1.900104         0.450499         1.999116
 H        -3.166949         0.672742         0.827293
 H        -1.615834         1.881763        -0.590364
 H         0.798354         2.071645         0.170435
 H         0.324974         1.285691         1.652569
 H         0.800893        -0.826705         0.412277
 H        -1.039955         4.193176         1.392230
