19
Iteration:  4041charge 0 multiplicity 1
 O        -3.131077         4.995876         1.732469
 C        -2.601615         3.886097         0.855492
 C        -3.172963         2.601893         1.340891
 C        -2.846566         1.511078         0.413915
 C        -1.290804         1.851820         0.594206
 C        -0.606823         0.607377         1.189892
 C         0.024030        -0.278884         0.028726
 O         0.552542         0.090648        -0.983283
 C        -1.716506         2.994381         1.548713
 H        -2.653604         5.848454         1.732105
 H        -2.630647         4.212614        -0.188257
 H        -4.004187         2.499628         2.041600
 H        -3.135080         0.476967         0.588323
 H        -3.176946         1.690932        -0.631604
 H        -0.776628         2.218864        -0.322942
 H         0.256557         1.021110         1.735630
 H        -1.197748         0.008379         1.881230
 H         0.184373        -1.321477         0.299499
 H        -1.380442         3.477013         2.422786
