19
Iteration:  1583charge 0 multiplicity 1
 O        -3.599583         4.785280         1.062036
 C        -3.154528         3.461108         0.890226
 C        -2.696238         2.774324         2.107249
 C        -2.445728         1.317050         1.912005
 C        -1.464944         1.633437         0.755967
 C         0.043878         1.126024         0.809945
 C         0.430893         0.507120        -0.462955
 O        -0.092458        -0.345753        -1.150559
 C        -1.693061         3.133457         0.949067
 H        -3.114020         5.333531         0.403265
 H        -3.652388         2.793666         0.207855
 H        -2.948141         3.197916         3.051662
 H        -1.905145         1.027850         2.797540
 H        -3.285441         0.674365         1.715332
 H        -1.947073         1.413910        -0.223452
 H         0.661572         1.940718         1.146967
 H         0.116282         0.261707         1.572234
 H         1.499195         0.620686        -0.687428
 H        -0.938979         3.858397         1.078645
