19
Iteration:  1306charge 0 multiplicity 1
 O        -3.476312         4.780190         1.750910
 C        -3.188051         3.630217         0.976527
 C        -2.698821         2.542976         1.854271
 C        -2.636505         1.182987         1.076533
 C        -1.524327         1.895696         0.141738
 C        -0.075353         1.516487         0.432529
 C         0.630697         0.269111        -0.022498
 O         0.015313        -0.675787        -0.509541
 C        -1.692149         3.192749         0.929943
 H        -3.612240         5.624375         1.282979
 H        -3.822222         3.425886         0.139973
 H        -2.943506         2.650469         2.893238
 H        -2.235875         0.421068         1.690833
 H        -3.692686         0.891532         0.709720
 H        -1.882869         2.026166        -0.914088
 H         0.447663         2.289293        -0.151985
 H         0.265390         1.623475         1.518667
 H         1.688860         0.400358         0.111868
 H        -0.953876         3.780555         1.409125
