19
Iteration:  2789
 O        -3.836595         4.562571         0.992611
 C        -3.318699         3.278463         0.996776
 C        -2.336559         3.045310         2.117595
 C        -2.273885         1.482988         2.269268
 C        -1.578651         1.441497         0.870662
 C        -0.048261         1.067345         0.835206
 C         0.281552         0.826094        -0.645048
 O         0.371619        -0.279864        -1.156779
 C        -1.867879         3.003941         0.634626
 H        -4.120429         4.854768         0.063196
 H        -4.078216         2.438453         0.735830
 H        -2.180163         3.866470         2.819869
 H        -1.610748         0.974513         3.094349
 H        -3.217706         0.932594         2.427584
 H        -2.004882         0.799134         0.033482
 H         0.700306         1.884198         1.236977
 H         0.055718         0.187618         1.414467
 H         0.351415         1.748739        -1.276384
 H        -1.075507         3.624347         0.312919
