19
Iteration:   127charge 0 multiplicity 1
 O        -3.221007         4.982209         1.833157
 C        -2.718737         3.963526         0.962839
 C        -3.275057         2.422907         0.931706
 C        -2.493923         1.489050        -0.038370
 C        -1.118556         2.118374         0.518690
 C        -0.126184         1.038043         1.244109
 C         0.509306         0.193460         0.084047
 O        -0.164171        -0.652349        -0.523354
 C        -2.018984         2.845562         1.600233
 H        -4.105910         4.841312         2.212270
 H        -2.357604         4.478717         0.029926
 H        -4.241937         2.131978         1.372311
 H        -2.689818         0.452820         0.398114
 H        -2.636146         1.538925        -1.238849
 H        -0.597922         2.757569        -0.203565
 H         0.594845         1.514339         2.053983
 H        -0.825139         0.325537         1.790631
 H         1.483349         0.473870        -0.436537
 H        -1.881934         2.937597         2.648045
