19
Iteration:  3321
 O        -3.293897         4.882429         1.121206
 C        -3.061219         3.488663         0.976904
 C        -2.592359         2.835763         2.119192
 C        -2.645608         1.279438         1.979626
 C        -1.568168         1.382715         0.749062
 C        -0.137609         0.826911         0.920425
 C         0.475797         0.512136        -0.411512
 O        -0.213938         0.102576        -1.369947
 C        -1.633687         2.972215         0.817436
 H        -3.073035         5.357533         0.278812
 H        -3.951738         3.089950         0.358669
 H        -2.422300         3.318373         3.041178
 H        -2.194724         0.787182         2.837810
 H        -3.726623         0.818341         1.641283
 H        -1.924255         1.042881        -0.284295
 H         0.530803         1.465019         1.501955
 H        -0.220061        -0.044768         1.498448
 H         1.592744         0.766376        -0.398041
 H        -0.866781         3.664522         0.870365
