19
Iteration:  1322charge 0 multiplicity 1
 O        -3.575461         4.782975         1.808993
 C        -3.083441         3.711830         0.994662
 C        -2.796305         2.513074         1.867489
 C        -2.598338         1.211877         1.091473
 C        -1.546520         1.827521         0.171520
 C        -0.031848         1.578464         0.321018
 C         0.547724         0.207781         0.087303
 O         0.062450        -0.693722        -0.555452
 C        -1.723755         3.239364         0.913713
 H        -3.318370         5.513794         1.247872
 H        -3.771507         3.575609         0.092933
 H        -2.680875         2.580282         2.986153
 H        -2.119495         0.325736         1.644976
 H        -3.321727         0.821937         0.451096
 H        -1.732808         1.789770        -0.888857
 H         0.544606         2.255894        -0.303151
 H         0.272948         1.910093         1.286215
 H         1.593034        -0.018736         0.473363
 H        -0.809921         3.908032         0.813802
