19
Iteration:   405
 O        -3.449615         4.858811         1.633478
 C        -2.852932         3.853626         0.829668
 C        -3.127253         2.410115         1.228954
 C        -2.411611         1.380326         0.285445
 C        -1.037853         2.075273         0.548100
 C        -0.142300         1.030987         1.243759
 C         0.331990         0.015704         0.216379
 O        -0.230603        -0.220930        -0.815272
 C        -1.778434         2.973352         1.462358
 H        -2.858510         5.504968         2.063276
 H        -2.714571         4.100248        -0.253078
 H        -3.764354         2.029466         1.989411
 H        -2.364927         0.362317         0.790733
 H        -2.759446         1.283016        -0.786988
 H        -0.599713         2.704109        -0.308250
 H         0.838691         1.427655         1.746074
 H        -0.663290         0.419427         2.014141
 H         1.035366        -0.671708         0.741440
 H        -1.390319         3.354473         2.338899
