19
Iteration:  2979charge 0 multiplicity 1
 O        -3.614030         4.803602         0.995299
 C        -3.362942         3.427797         1.139177
 C        -2.343996         3.020674         2.187156
 C        -2.259558         1.571865         2.415606
 C        -1.891138         1.349377         0.842450
 C        -0.479165         0.694038         0.577260
 C         0.030688         0.309152        -0.776315
 O         1.205485         0.243926        -1.105503
 C        -2.048639         2.918462         0.630621
 H        -3.512526         5.121391         0.114679
 H        -4.228359         2.716864         0.902191
 H        -1.972611         3.872110         2.907372
 H        -1.477879         1.313468         2.985976
 H        -3.054340         0.977006         2.938390
 H        -2.666079         0.961581         0.135573
 H         0.313305         1.202328         1.259120
 H        -0.558907        -0.354443         1.148489
 H        -0.733627        -0.073882        -1.493931
 H        -1.611639         3.613729        -0.139919
