19
Iteration:   512charge 0 multiplicity 1
 O        -3.411718         4.928614         1.672182
 C        -2.923619         3.901148         0.923580
 C        -3.206051         2.532900         1.523316
 C        -2.873680         1.573149         0.384438
 C        -1.390580         1.882926         0.484443
 C        -0.160783         0.956474         1.046932
 C         0.261026        -0.307305         0.233566
 O         0.683762        -0.295110        -0.911766
 C        -1.729701         3.152400         1.337975
 H        -2.803363         5.623154         1.914506
 H        -3.188673         3.983891        -0.200636
 H        -3.793194         2.381116         2.389245
 H        -3.073517         0.558859         0.472470
 H        -3.445605         1.889499        -0.438193
 H        -1.003051         2.353989        -0.452248
 H         0.622855         1.586972         1.413494
 H        -0.632439         0.454580         1.927473
 H         0.088619        -1.278032         0.735705
 H        -1.152710         3.597734         2.066140
