19
Iteration:  1902
 O        -3.483947         4.682053         0.686870
 C        -3.196830         3.259227         0.907887
 C        -2.379620         3.016252         2.086374
 C        -2.348389         1.534447         2.406080
 C        -1.717457         1.239972         0.980372
 C        -0.264577         0.612714         0.970656
 C         0.134749         0.274755        -0.368269
 O         0.304989         0.929415        -1.363043
 C        -1.770724         2.744490         0.683790
 H        -2.986066         4.834218        -0.114548
 H        -4.157452         2.719737         0.822460
 H        -2.011587         3.881592         2.635041
 H        -1.692682         1.327691         3.297705
 H        -3.303300         1.113133         2.608852
 H        -2.319192         0.585676         0.338172
 H         0.635740         1.263946         1.346137
 H        -0.384485        -0.320692         1.578683
 H         0.207577        -0.866288        -0.567024
 H        -0.936861         3.122447         0.039692
