19
Iteration:  3087charge 0 multiplicity 1
 O        -3.150057         4.675904         0.542640
 C        -3.254570         3.342910         1.000632
 C        -2.256211         2.941001         2.096055
 C        -2.239979         1.511119         2.522940
 C        -1.921436         1.099648         1.072956
 C        -0.537399         0.372855         0.790098
 C        -0.239938         0.477497        -0.646382
 O         0.664734         1.192354        -1.046411
 C        -1.844478         2.616750         0.701730
 H        -2.903346         4.816526        -0.369710
 H        -4.218680         2.798584         0.745496
 H        -1.863163         3.723517         2.691670
 H        -1.435632         1.238041         3.209796
 H        -3.258037         1.195270         2.813856
 H        -2.668139         0.461681         0.534568
 H         0.187741         0.881720         1.383525
 H        -0.761231        -0.632088         1.089652
 H        -0.798119        -0.214863        -1.313310
 H        -1.289113         3.131016        -0.001447
