19
Iteration:   835charge 0 multiplicity 1
 O        -3.368324         4.852056         1.898156
 C        -3.041555         3.826712         0.967188
 C        -3.013151         2.436997         1.563831
 C        -2.807353         1.340287         0.607045
 C        -1.405002         1.976015         0.065901
 C        -0.262289         1.280035         0.637534
 C        -0.086098         0.103687        -0.093461
 O         0.911823        -0.599867        -0.225611
 C        -1.722485         3.187870         1.113829
 H        -2.564202         5.398951         1.884279
 H        -3.576050         3.993348        -0.045467
 H        -3.284152         2.307492         2.665991
 H        -2.697478         0.410393         1.148870
 H        -3.540727         1.180699        -0.161126
 H        -1.425353         2.203204        -0.950822
 H         0.768431         1.792674         0.640965
 H        -0.515333         0.949561         1.708356
 H        -1.082390        -0.078580        -0.617850
 H        -1.024581         3.566443         1.854795
