19
Iteration:   949
 O        -3.495422         4.718557         1.878957
 C        -3.064872         3.756208         0.986160
 C        -2.947603         2.398594         1.632515
 C        -2.681734         1.378494         0.603460
 C        -1.404423         2.197907         0.163849
 C        -0.046422         1.554229         0.329463
 C        -0.038555         0.062881        -0.366133
 O         0.633074        -0.866205         0.089609
 C        -1.686586         3.251207         1.277045
 H        -3.066186         5.554211         1.605097
 H        -3.230923         3.978291        -0.089888
 H        -3.448875         2.238866         2.623674
 H        -2.583936         0.389434         1.092835
 H        -3.531784         1.309176        -0.152120
 H        -1.498036         2.419942        -0.895558
 H         0.927160         1.947177        -0.031740
 H         0.186516         1.294456         1.377770
 H        -0.825984        -0.178875        -1.186481
 H        -1.001253         3.780809         1.891912
