19
Iteration:  2614charge 0 multiplicity 1
 O        -3.536200         4.372637         0.464303
 C        -3.292525         3.031872         0.850684
 C        -2.246351         3.033475         1.988868
 C        -2.111024         1.582543         2.608620
 C        -1.551296         1.113404         1.128144
 C         0.014684         0.909396         1.106017
 C         0.342301         0.743113        -0.398202
 O        -0.429827         0.911370        -1.332962
 C        -1.814739         2.561116         0.599647
 H        -3.531124         4.476120        -0.532661
 H        -4.108238         2.451979         1.030043
 H        -2.110434         3.973253         2.638382
 H        -1.421540         1.595915         3.359957
 H        -3.198857         1.318037         2.921303
 H        -2.098645         0.292228         0.759062
 H         0.774569         1.701072         1.540668
 H         0.445464         0.003277         1.575591
 H         1.401662         0.585499        -0.651948
 H        -1.140350         2.969839        -0.184259
