19
Iteration:  3513charge 0 multiplicity 1
 O        -3.602097         4.794341         1.687632
 C        -3.090881         3.669795         0.968388
 C        -2.666978         2.570784         1.912987
 C        -2.417477         1.273519         1.147022
 C        -1.327108         2.004589         0.320746
 C         0.149685         1.373433         0.420507
 C         0.276130        -0.020738        -0.022968
 O        -0.323549        -0.550460        -0.913511
 C        -1.607796         3.267247         1.215994
 H        -3.574931         5.609810         1.081745
 H        -3.459836         3.433174        -0.022807
 H        -2.902875         2.484095         2.955556
 H        -2.011544         0.439117         1.843070
 H        -3.171223         0.911972         0.483273
 H        -1.487565         2.166925        -0.674338
 H         0.972349         1.956897        -0.023042
 H         0.420222         1.354274         1.382946
 H         1.006079        -0.555039         0.704044
 H        -1.115586         4.209433         1.541235
