19
Iteration:  2493charge 0 multiplicity 1
 O        -3.934665         4.208030         0.673872
 C        -3.331080         3.023667         0.957508
 C        -2.179350         3.181521         1.899643
 C        -1.879971         1.852578         2.541189
 C        -1.636015         1.315729         1.063965
 C        -0.352813         0.509054         0.939998
 C         0.255143         0.328426        -0.378847
 O         0.258948         1.152411        -1.283186
 C        -1.746337         2.830506         0.536029
 H        -4.340855         4.087425        -0.181719
 H        -4.037130         2.151148         1.022075
 H        -2.034831         4.083192         2.380355
 H        -1.002233         1.700220         3.026485
 H        -2.757187         1.343886         3.155521
 H        -2.528903         0.825888         0.610068
 H         0.457512         1.040112         1.563379
 H        -0.435113        -0.476274         1.453344
 H         0.892314        -0.592809        -0.435439
 H        -1.289326         3.197990        -0.390320
