19
Iteration:  2358charge 0 multiplicity 1
 O        -3.581202         4.380440         0.518201
 C        -3.346136         3.017204         0.905952
 C        -2.266503         3.119186         1.996915
 C        -2.071999         1.625049         2.472557
 C        -1.505704         1.164171         1.077647
 C         0.034225         0.921294         1.059458
 C         0.306937         0.506089        -0.314903
 O        -0.219088         1.079401        -1.256593
 C        -1.966701         2.506662         0.566750
 H        -3.869245         4.306370        -0.444217
 H        -4.183690         2.332177         1.014727
 H        -1.816302         4.057638         2.291218
 H        -1.199490         1.426595         3.186249
 H        -3.019744         1.040220         2.646565
 H        -2.061855         0.253687         0.830851
 H         0.614675         1.751973         1.410549
 H         0.254026         0.052478         1.635576
 H         1.123184        -0.329660        -0.536756
 H        -1.589866         3.058151        -0.223602
