19
Iteration:  2831charge 0 multiplicity 1
 O        -3.621490         4.683963         0.997611
 C        -3.417238         3.270282         0.978582
 C        -2.566068         2.914495         2.228772
 C        -2.119211         1.403181         2.303699
 C        -1.674402         1.572309         0.825240
 C        -0.121173         1.163949         0.662832
 C         0.132743         0.742194        -0.798338
 O         0.640416        -0.351674        -1.010356
 C        -1.997785         2.971917         0.707030
 H        -3.732085         4.831323         0.053348
 H        -4.377564         2.692353         0.652225
 H        -2.361809         3.738384         2.934380
 H        -1.102107         1.362707         2.957257
 H        -2.926524         0.788882         2.529539
 H        -2.272801         0.888894         0.197300
 H         0.410483         1.948374         1.084266
 H         0.244179         0.235426         1.250766
 H         0.085002         1.490803        -1.633106
 H        -1.431226         3.825353         0.473551
