19
Iteration:   523charge 0 multiplicity 1
 O        -3.394506         4.891666         1.676530
 C        -2.871504         3.879890         0.828904
 C        -3.182619         2.590444         1.608365
 C        -2.952164         1.542971         0.415139
 C        -1.391392         1.927584         0.418333
 C        -0.250280         0.933352         1.055095
 C         0.221749        -0.310503         0.217998
 O         0.744350        -0.223417        -0.886908
 C        -1.752238         3.082494         1.373858
 H        -2.737368         5.478223         2.086749
 H        -3.090813         4.041284        -0.289949
 H        -3.899703         2.703759         2.382988
 H        -3.176565         0.555726         0.630530
 H        -3.172698         1.853094        -0.560054
 H        -0.982797         2.072961        -0.612517
 H         0.684239         1.509104         1.087954
 H        -0.440379         0.613689         2.146097
 H         0.152241        -1.287434         0.706644
 H        -1.104461         3.601530         1.983227
