19
Iteration:  1406charge 0 multiplicity 1
 O        -3.744747         4.633547         1.653229
 C        -3.098007         3.511341         0.959962
 C        -2.535362         2.546105         1.943059
 C        -2.337901         1.276866         1.235483
 C        -1.322987         1.955399         0.147239
 C         0.143363         1.611678         0.352822
 C         0.078518         0.107742         0.312202
 O        -0.087777        -0.479889        -0.771742
 C        -1.631587         3.286265         0.915308
 H        -3.861517         5.276894         0.907258
 H        -3.712062         3.080961         0.196234
 H        -2.739592         2.677713         3.010431
 H        -1.943326         0.384915         1.716787
 H        -3.279749         0.925755         0.673337
 H        -1.687167         1.750810        -0.899288
 H         0.695301         1.832762        -0.599138
 H         0.696203         2.035721         1.283281
 H         0.042970        -0.384521         1.285442
 H        -0.781303         3.993723         1.144211
