19
Iteration:  1790charge 0 multiplicity 1
 O        -3.249828         4.435391         0.376894
 C        -2.966890         3.163303         0.797108
 C        -2.224460         3.011722         2.071669
 C        -2.233226         1.562820         2.603271
 C        -1.833801         1.109995         1.142805
 C        -0.607767         0.351232         0.935663
 C         0.204186         0.689532        -0.297076
 O        -0.131727         1.363859        -1.273450
 C        -1.693830         2.573194         0.655784
 H        -2.762202         4.532474        -0.457096
 H        -3.733159         2.433719         0.665324
 H        -1.903996         3.979418         2.590157
 H        -1.445794         1.528762         3.311658
 H        -3.190477         1.081617         2.986184
 H        -2.655015         0.597014         0.762642
 H         0.260573         0.572279         1.714454
 H        -0.891808        -0.736617         1.080269
 H         1.158192         0.264057        -0.154397
 H        -0.797764         3.050253         0.096534
