19
Iteration:  2892charge 0 multiplicity 1
 O        -3.854546         4.742984         1.096766
 C        -3.377721         3.362558         1.155820
 C        -2.369350         3.039667         2.159579
 C        -2.248965         1.503712         2.199659
 C        -1.696787         1.502613         0.781465
 C        -0.219125         0.971100         0.606448
 C         0.037452         0.452456        -0.787716
 O         0.990660        -0.259221        -1.023606
 C        -1.905089         3.052281         0.696100
 H        -3.908721         4.913390         0.167326
 H        -4.201465         2.733188         0.882202
 H        -2.412508         3.782106         3.090028
 H        -1.517329         1.070122         2.845217
 H        -3.293240         0.968677         2.394655
 H        -2.444906         1.050640         0.037084
 H         0.509533         1.871496         0.822145
 H        -0.087232         0.169562         1.386325
 H        -0.647266         0.907410        -1.576761
 H        -1.125440         3.765876         0.237162
