19
Iteration:  4474charge 0 multiplicity 1
 O        -3.076166         4.994618         2.034897
 C        -2.395165         3.990814         1.196881
 C        -3.321609         2.960542         0.598772
 C        -2.360106         2.166044        -0.356349
 C        -1.348074         1.928115         0.793874
 C        -0.669422         0.633708         0.940638
 C        -0.160226        -0.042078        -0.232953
 O         0.739847        -0.880194        -0.210338
 C        -2.273264         2.610886         1.768970
 H        -2.502962         5.256594         2.800849
 H        -1.610961         4.479688         0.602556
 H        -4.371922         3.014191         0.887574
 H        -2.866735         1.204578        -0.791714
 H        -2.033934         2.832138        -1.186792
 H        -0.543290         2.615965         0.571184
 H         0.023934         0.681673         1.755363
 H        -1.549773        -0.041268         1.238632
 H        -0.660210         0.196535        -1.224639
 H        -2.470414         2.521824         2.873671
