19
Iteration:  3489charge 0 multiplicity 1
 O        -3.540087         4.810681         1.579453
 C        -3.117807         3.527883         1.001442
 C        -2.691294         2.594440         1.985599
 C        -2.397007         1.205012         1.258518
 C        -1.330694         1.951925         0.440558
 C         0.136691         1.423363         0.640150
 C         0.285720        -0.090338        -0.041182
 O        -0.380041        -0.353190        -1.067089
 C        -1.598319         3.301412         0.980021
 H        -3.108813         5.473634         0.994256
 H        -3.667051         3.082846         0.127570
 H        -2.929385         2.759483         2.999745
 H        -2.001412         0.398225         1.918561
 H        -3.275272         0.839745         0.622732
 H        -1.345888         1.923469        -0.654232
 H         0.775414         2.073793         0.010022
 H         0.531471         1.560582         1.623797
 H         0.862945        -0.853789         0.597375
 H        -0.917457         4.042241         1.583061
