19
Iteration:  3666charge 0 multiplicity 1
 O        -3.541873         4.731268         2.075504
 C        -3.058638         3.768848         1.114411
 C        -2.771422         2.419285         1.660017
 C        -2.645226         1.436821         0.480184
 C        -1.260857         2.241832         0.103410
 C         0.120744         1.429216         0.364299
 C         0.072372         0.107795        -0.407950
 O         0.048470        -1.025054         0.064231
 C        -1.590784         3.305205         1.119251
 H        -3.325502         5.617244         1.770047
 H        -3.586613         3.896824         0.155626
 H        -3.105956         2.175878         2.703771
 H        -2.523456         0.407185         0.975631
 H        -3.436011         1.343216        -0.237554
 H        -1.155132         2.700396        -0.981852
 H         0.959160         2.067205        -0.058179
 H         0.224344         1.321631         1.512705
 H        -0.036166         0.337392        -1.572722
 H        -0.845814         3.881620         1.547665
