19
Iteration:  3781
 O        -3.194424         4.921815         2.023495
 C        -2.997264         4.015694         1.015156
 C        -3.111418         2.550335         1.564544
 C        -2.910486         1.429758         0.473764
 C        -1.446738         2.102263         0.173326
 C        -0.281805         1.144445         0.523095
 C        -0.106433        -0.173700        -0.288718
 O         0.967954        -0.760150        -0.281080
 C        -1.810573         3.174768         1.326066
 H        -2.530273         5.600285         1.885445
 H        -3.359624         4.213616         0.022310
 H        -3.574255         2.537355         2.628500
 H        -2.687657         0.508126         0.952098
 H        -3.611185         1.112754        -0.292661
 H        -1.149948         2.703416        -0.722569
 H         0.684252         1.613370         0.310572
 H        -0.259310         0.948301         1.549833
 H        -1.019913        -0.603701        -0.638146
 H        -1.191310         3.431767         2.212921
