19
Iteration:  3654charge 0 multiplicity 1
 O        -3.443703         4.684472         2.052183
 C        -3.048347         3.790568         1.080620
 C        -2.800053         2.386053         1.644708
 C        -2.607308         1.311867         0.540227
 C        -1.256670         2.204823         0.102474
 C         0.047961         1.485338         0.398396
 C         0.169137         0.171716        -0.383077
 O        -0.088784        -0.922116         0.050411
 C        -1.635537         3.312683         1.095892
 H        -3.270614         5.624251         1.711083
 H        -3.483615         3.939981         0.063100
 H        -2.673898         2.132773         2.734225
 H        -2.415878         0.167259         0.784038
 H        -3.469889         1.468377        -0.083275
 H        -1.232649         2.494240        -1.076116
 H         0.847445         2.256984         0.185607
 H         0.246714         1.106629         1.529332
 H         0.205182         0.258242        -1.603453
 H        -0.999225         3.956316         1.616557
