19
Iteration:  4903charge 0 multiplicity 1
 O        -3.699796         4.458187         1.903904
 C        -2.381016         4.041729         1.489574
 C        -2.520289         3.249693         0.288170
 C        -1.409836         2.550646        -0.383830
 C        -0.829158         2.049470         0.989975
 C        -0.764457         0.558530         1.352620
 C        -0.489789        -0.547451         0.275505
 O        -0.326554        -0.451251        -0.932705
 C        -2.126881         2.611398         1.539402
 H        -3.509171         4.409435         2.825710
 H        -1.485640         4.703834         1.698716
 H        -3.529988         3.358094         0.002825
 H        -1.568826         1.786440        -1.140817
 H        -0.650569         3.232289        -0.891275
 H         0.069445         2.707608         1.440732
 H         0.053699         0.379543         2.056253
 H        -1.751151         0.334652         1.930664
 H        -0.585401        -1.547211         0.838884
 H        -2.711114         1.933939         2.282303
