19
Iteration:  4913charge 0 multiplicity 1
 O        -3.664271         4.406745         1.946693
 C        -2.377280         4.057990         1.479183
 C        -2.613784         3.198922         0.234420
 C        -1.268738         2.628474        -0.439820
 C        -0.765052         2.138716         1.001132
 C        -0.759824         0.589098         1.347777
 C        -0.579700        -0.578630         0.290465
 O        -0.343476        -0.444630        -0.900042
 C        -2.118963         2.566922         1.588928
 H        -3.833056         4.401328         2.872859
 H        -1.589042         4.822302         1.650937
 H        -3.562147         3.219388        -0.258251
 H        -1.775248         1.748827        -0.938597
 H        -0.641310         3.139032        -1.203436
 H         0.151148         2.629292         1.454106
 H        -0.007227         0.345060         2.125942
 H        -1.730359         0.337939         1.878753
 H        -0.559318        -1.594468         0.656416
 H        -2.871259         1.918998         2.195445
