19
Iteration:   608charge 0 multiplicity 1
 O        -3.213463         5.008417         1.573454
 C        -2.843666         3.793304         0.716448
 C        -3.229112         2.537421         1.564233
 C        -3.001287         1.410674         0.664717
 C        -1.371077         1.742968         0.614333
 C        -0.273770         0.886499         1.123755
 C        -0.010342        -0.091694        -0.041432
 O         0.906067        -0.003531        -0.828460
 C        -1.748125         2.953556         1.450391
 H        -2.944698         5.740920         1.021196
 H        -2.949671         3.853395        -0.322653
 H        -4.078393         2.624429         2.197527
 H        -3.195704         0.372172         0.806518
 H        -3.440974         1.564864        -0.413970
 H        -0.983556         2.081784        -0.395689
 H         0.487123         1.594289         1.444304
 H        -0.491585         0.195467         2.038383
 H        -0.882096        -0.778339        -0.306058
 H        -1.167434         3.476740         2.118125
