19
Iteration:  1404
 O        -3.742104         4.643252         1.659927
 C        -3.096136         3.511287         0.956531
 C        -2.540099         2.542916         1.946007
 C        -2.341880         1.269019         1.231745
 C        -1.305292         1.966120         0.133597
 C         0.131766         1.620017         0.360631
 C         0.083750         0.118554         0.307828
 O        -0.086170        -0.490992        -0.766424
 C        -1.641762         3.275009         0.928977
 H        -3.858781         5.295086         0.929752
 H        -3.730231         3.055485         0.157168
 H        -2.670876         2.695665         2.978980
 H        -1.923920         0.440153         1.705675
 H        -3.264080         0.951831         0.656761
 H        -1.653226         1.661855        -0.909744
 H         0.675539         1.783504        -0.628062
 H         0.653689         2.050475         1.254897
 H         0.030715        -0.379593         1.257459
 H        -0.828738         3.952762         1.133962
