19
Iteration:   695charge 0 multiplicity 1
 O        -3.207360         5.103797         1.529452
 C        -2.911423         3.811568         0.777219
 C        -3.290204         2.599147         1.559268
 C        -3.002868         1.299402         0.737514
 C        -1.504181         1.718245         0.544234
 C        -0.236023         0.895161         1.029492
 C         0.036075         0.133783        -0.193393
 O         1.054605        -0.236928        -0.734670
 C        -1.812806         2.958091         1.507784
 H        -2.408653         5.656449         1.476934
 H        -2.941747         3.985755        -0.260856
 H        -3.843938         2.738848         2.547051
 H        -2.978912         0.412686         1.341591
 H        -3.628081         1.005350        -0.187267
 H        -1.257785         2.009134        -0.575747
 H         0.438340         1.559947         1.477156
 H        -0.547076         0.099872         1.664889
 H        -1.000547        -0.064696        -0.630440
 H        -1.025135         3.336455         2.097050
