19
Iteration:  1042charge 0 multiplicity 1
 O        -3.612411         4.778389         1.813419
 C        -3.114352         3.751391         0.991206
 C        -2.690134         2.437469         1.782990
 C        -2.635201         1.262732         0.796567
 C        -1.408129         2.100194         0.086708
 C        -0.038924         1.392455         0.480223
 C         0.501886         0.291012        -0.314023
 O         0.074454        -0.855979        -0.119585
 C        -1.705462         3.253184         1.111093
 H        -3.666644         5.674845         1.408615
 H        -3.660166         3.529117         0.092700
 H        -2.887847         2.380385         2.801754
 H        -2.245475         0.211489         1.203649
 H        -3.535172         0.964863         0.160659
 H        -1.693555         2.352186        -1.017605
 H         0.659925         2.216143         0.343004
 H        -0.084233         1.278977         1.574440
 H         1.262850         0.482497        -1.039302
 H        -0.791912         3.854625         1.393518
