19
Iteration:  3969charge 0 multiplicity 1
 O        -2.864543         5.061838         1.463244
 C        -2.641759         3.832788         0.879850
 C        -3.367363         2.604560         1.439759
 C        -2.985420         1.475480         0.606609
 C        -1.443600         1.689681         0.720070
 C        -0.522663         0.568039         1.184222
 C        -0.046521        -0.096826        -0.142726
 O         0.832915         0.259864        -0.981913
 C        -1.883183         2.862542         1.642966
 H        -2.085338         5.596586         1.593826
 H        -2.503590         3.961314        -0.187403
 H        -4.202278         2.679651         2.065686
 H        -3.355934         0.578416         1.080831
 H        -3.429229         1.349220        -0.332702
 H        -1.034134         2.052261        -0.265996
 H         0.358576         0.950388         1.714243
 H        -1.062866        -0.097679         1.883470
 H        -0.543152        -1.000511        -0.539354
 H        -1.243501         3.159854         2.520648
