19
Iteration:   814charge 0 multiplicity 1
 O        -3.334663         4.865620         1.842628
 C        -3.084578         3.830732         0.911650
 C        -3.030225         2.506879         1.680317
 C        -2.819346         1.367691         0.597907
 C        -1.484825         2.112758         0.208592
 C        -0.420412         1.184867         0.724442
 C        -0.026467        -0.104561        -0.244876
 O         1.109632        -0.599561        -0.287961
 C        -1.749419         3.255201         1.167727
 H        -2.629647         5.561283         1.889704
 H        -3.696487         3.861193        -0.057486
 H        -3.487956         2.393012         2.724494
 H        -2.684433         0.390994         1.003795
 H        -3.762863         1.331654         0.016743
 H        -1.305541         2.344499        -0.809686
 H         0.602446         1.658836         0.736692
 H        -0.656654         0.689414         1.706492
 H        -0.837402        -0.598818        -0.839202
 H        -0.852716         3.848506         1.436306
