19
Iteration:  1284charge 0 multiplicity 1
 O        -3.412025         4.812552         1.656255
 C        -3.221024         3.563950         1.009449
 C        -2.814819         2.460349         1.944897
 C        -2.529693         1.190524         1.036215
 C        -1.479440         1.987549         0.221235
 C         0.005176         1.560356         0.539043
 C         0.566026         0.303227        -0.191119
 O        -0.018744        -0.728499        -0.482516
 C        -1.780182         3.238455         0.944949
 H        -3.420454         5.600215         1.100270
 H        -3.917223         3.302333         0.238774
 H        -2.814945         2.549098         3.034286
 H        -2.230839         0.389405         1.663036
 H        -3.463091         0.900388         0.420164
 H        -1.821972         1.803969        -0.830885
 H         0.730574         2.346286         0.452407
 H         0.019567         1.118017         1.585218
 H         1.660658         0.486320        -0.273066
 H        -1.135977         4.076139         0.995826
