19
Iteration:  3919charge 0 multiplicity 1
 O        -2.995261         5.103279         1.541774
 C        -2.510292         3.869284         0.880042
 C        -3.319303         2.728729         1.459084
 C        -3.172169         1.366130         0.654821
 C        -1.631140         1.662583         0.631569
 C        -0.513866         0.672012         1.013376
 C        -0.000884        -0.120925        -0.253044
 O         1.005803         0.109722        -0.837699
 C        -1.809085         2.821378         1.661049
 H        -2.171110         5.670315         1.672954
 H        -2.346401         4.130958        -0.195664
 H        -4.088708         3.123625         2.160701
 H        -3.270385         0.447654         1.364393
 H        -3.826649         1.149251        -0.284017
 H        -1.239046         2.138771        -0.245288
 H         0.370087         1.332078         1.225851
 H        -0.664224         0.071311         1.935055
 H        -0.648146        -0.840916        -0.773831
 H        -1.097061         2.982029         2.519831
