19
Iteration:  4215charge 0 multiplicity 1
 O        -3.598993         4.685412         1.845723
 C        -2.676967         3.914346         1.197114
 C        -3.014455         2.452843         0.981394
 C        -2.144807         1.970056        -0.165487
 C        -0.812698         2.221559         0.586405
 C        -0.158683         1.039849         1.185107
 C         0.055693         0.165304        -0.186793
 O        -0.563235        -0.863996        -0.443326
 C        -1.667506         2.820865         1.670437
 H        -3.230598         5.421351         2.320818
 H        -2.329795         4.314224         0.202084
 H        -3.837883         1.944467         1.466700
 H        -2.316030         0.905017        -0.422707
 H        -2.158961         2.491825        -1.105992
 H        -0.040401         2.813914         0.118618
 H         0.821280         1.346753         1.524186
 H        -0.831225         0.453087         1.803435
 H         0.568023         0.709552        -1.079208
 H        -1.371748         2.999517         2.746631
