19
Iteration:  4393
 O        -3.443856         4.584161         2.139587
 C        -2.543968         4.130549         1.272974
 C        -3.175224         2.847256         0.695241
 C        -2.332175         2.349092        -0.423934
 C        -1.089386         2.278774         0.499522
 C        -0.799225         0.730884         0.845517
 C         0.073417        -0.065490        -0.154920
 O         0.334052        -1.282521        -0.051688
 C        -1.729925         2.936174         1.679793
 H        -3.058767         5.193158         2.774453
 H        -2.040610         4.901054         0.589031
 H        -4.192840         2.655235         0.983060
 H        -2.694945         1.449258        -0.864692
 H        -2.320010         3.097431        -1.301222
 H        -0.235921         2.805319         0.151309
 H        -0.240177         0.657458         1.832832
 H        -1.684923         0.216898         1.164326
 H         0.365372         0.495931        -1.109107
 H        -1.304032         2.761805         2.649463
