19
Iteration:  4817
 O        -3.214736         4.880745         1.806941
 C        -2.320408         3.900686         1.349289
 C        -2.918802         2.925010         0.370349
 C        -1.654492         2.350198        -0.254025
 C        -1.078935         1.822147         1.137410
 C        -1.023890         0.308782         1.281523
 C        -0.127461        -0.304204         0.261110
 O        -0.067973        -0.091311        -0.961617
 C        -2.349163         2.525992         1.669591
 H        -2.869607         5.157550         2.673672
 H        -1.363798         4.490940         1.063623
 H        -3.914870         3.046644        -0.008459
 H        -1.829678         1.555574        -0.979195
 H        -0.900522         3.003278        -0.794806
 H        -0.083858         2.264044         1.429886
 H        -0.801616        -0.105697         2.259266
 H        -2.070676         0.005120         0.990512
 H         0.602527        -1.012259         0.632201
 H        -2.899863         2.214718         2.631518
