19
Iteration:  2133charge 0 multiplicity 1
 O        -3.704627         4.644723         1.045499
 C        -3.411428         3.304509         1.136268
 C        -2.275150         2.994274         2.102591
 C        -2.228061         1.530712         2.298308
 C        -1.757129         1.400823         0.747328
 C        -0.290252         1.130908         0.693183
 C         0.410418         0.817645        -0.661373
 O         0.606034        -0.299267        -1.040197
 C        -2.049349         2.882790         0.541221
 H        -4.021311         4.988342         0.222656
 H        -4.208217         2.647951         1.107843
 H        -1.925193         3.695284         2.799951
 H        -1.273721         1.228175         2.914114
 H        -3.055355         0.866926         2.737707
 H        -2.261588         0.584179         0.240383
 H         0.275468         1.911789         1.171427
 H        -0.198416         0.238790         1.225253
 H         0.883357         1.653390        -1.319303
 H        -1.746627         3.500630        -0.287693
