19
Iteration:  1240charge 0 multiplicity 1
 O        -3.667122         4.736034         1.564917
 C        -3.128441         3.605027         0.912931
 C        -2.755728         2.499228         1.924197
 C        -2.471074         1.194324         1.127120
 C        -1.347062         1.953176         0.367393
 C         0.129646         1.472976         0.633307
 C         0.457221         0.351357        -0.368100
 O        -0.186663        -0.665631        -0.447985
 C        -1.680244         3.243723         1.014074
 H        -3.150081         5.508982         1.295711
 H        -3.743832         3.366751         0.074451
 H        -3.119188         2.706662         2.987826
 H        -2.059277         0.319041         1.635144
 H        -3.291451         0.863254         0.369245
 H        -1.262301         2.049041        -0.768395
 H         0.815965         2.283260         0.493831
 H         0.086441         0.985824         1.646880
 H         1.457802         0.659119        -1.024387
 H        -0.873907         3.863426         1.311332
