19
Iteration:  4335
 O        -3.339609         4.503271         2.315581
 C        -2.672703         4.080347         1.184554
 C        -3.156147         2.787385         0.609983
 C        -2.208377         2.317467        -0.509761
 C        -0.981632         2.366188         0.456585
 C        -0.338791         1.066527         0.810185
 C         0.091936        -0.064157        -0.106290
 O        -0.086955        -1.295976         0.079894
 C        -2.026441         2.769087         1.593065
 H        -2.603057         4.671628         2.968856
 H        -2.212697         4.879901         0.551185
 H        -4.244978         2.511626         0.681608
 H        -2.481146         1.308002        -1.006334
 H        -2.132634         3.100778        -1.329028
 H        -0.428259         3.238769         0.123723
 H         0.620596         1.353794         1.360760
 H        -1.091617         0.618730         1.486151
 H         0.542493         0.279187        -1.083828
 H        -1.973962         2.391143         2.713036
