19
Iteration:  2218
 O        -3.664464         4.467135         0.674348
 C        -3.233571         3.158926         0.891310
 C        -2.435594         2.958558         2.117581
 C        -2.154613         1.526457         2.511458
 C        -1.554764         1.364576         1.025770
 C        -0.078301         0.929612         0.973949
 C         0.276593         1.015563        -0.513982
 O        -0.032019         0.140329        -1.323279
 C        -1.725925         2.820085         0.653529
 H        -3.959956         4.657780        -0.245066
 H        -3.972732         2.371111         0.526786
 H        -2.533111         3.753022         2.828588
 H        -1.314876         1.520349         3.071944
 H        -2.977153         0.850432         2.854537
 H        -2.140729         0.630361         0.441086
 H         0.584032         1.685440         1.449033
 H         0.052451        -0.204002         1.323827
 H         0.931513         1.878864        -0.759126
 H        -0.989560         3.443617         0.147828
