19
Iteration:  3198
 O        -3.133963         4.674641         0.639377
 C        -3.044728         3.326631         0.988163
 C        -2.207656         2.980598         2.160550
 C        -2.329228         1.504728         2.354584
 C        -1.928321         1.179106         0.913581
 C        -0.715332         0.327055         0.867988
 C         0.223486         0.374856        -0.397303
 O         0.139535         1.250170        -1.249652
 C        -1.758192         2.659137         0.674361
 H        -3.281066         4.754376        -0.323478
 H        -3.966251         2.695465         0.779832
 H        -1.879393         3.667078         2.996189
 H        -1.491356         1.108389         3.084709
 H        -3.284999         1.047770         2.817018
 H        -2.792581         0.639389         0.384651
 H         0.047592         0.606448         1.583463
 H        -0.783523        -0.706378         1.002624
 H         1.011916        -0.414534        -0.316759
 H        -0.870498         3.218946         0.181673
