19
Iteration:  4852
 O        -3.413729         4.863154         1.909476
 C        -2.418647         4.028051         1.394485
 C        -2.828110         3.036362         0.269187
 C        -1.449745         2.425848        -0.286185
 C        -1.007400         1.849481         1.114503
 C        -0.772491         0.403919         1.326811
 C        -0.219084        -0.407270         0.200372
 O        -0.201956        -0.326231        -1.000911
 C        -2.352812         2.528818         1.663032
 H        -3.281863         5.105690         2.835988
 H        -1.379548         4.429565         1.259979
 H        -3.752687         3.013754        -0.316329
 H        -1.648825         1.678311        -1.024627
 H        -0.633648         3.140868        -0.594354
 H        -0.257095         2.442509         1.556418
 H        -0.249917         0.101554         2.253521
 H        -1.762390        -0.047837         1.419140
 H         0.061980        -1.322008         0.672611
 H        -3.005198         2.074773         2.417375
