19
Iteration:  4204charge 0 multiplicity 1
 O        -3.559924         4.664291         1.853589
 C        -2.615436         3.904684         1.101466
 C        -2.979811         2.452513         1.048778
 C        -2.207160         1.879780        -0.197196
 C        -0.897298         2.273693         0.580262
 C        -0.164346         0.986825         1.112757
 C         0.109234         0.135039        -0.107077
 O        -0.554145        -0.826160        -0.511736
 C        -1.704405         2.939208         1.753353
 H        -3.200524         5.437490         2.346210
 H        -2.415170         4.433368         0.131949
 H        -3.893705         2.202449         1.547666
 H        -2.240529         0.803677        -0.455385
 H        -2.426827         2.472987        -1.075294
 H        -0.211434         2.983607         0.105692
 H         0.644562         1.312758         1.765377
 H        -0.749866         0.357827         1.790872
 H         0.977338         0.537300        -0.745456
 H        -1.501386         2.748792         2.835995
