19
Iteration:  4691charge 0 multiplicity 1
 O        -2.857113         4.961120         2.200129
 C        -2.291991         3.993166         1.266093
 C        -3.216154         3.065511         0.498960
 C        -2.418675         2.276325        -0.587180
 C        -1.505994         1.879324         0.640068
 C        -1.086975         0.395932         1.067006
 C         0.043721        -0.444405         0.384710
 O         0.761937        -0.254224        -0.573614
 C        -2.360209         2.489808         1.566495
 H        -2.380552         4.983842         3.013983
 H        -1.386250         4.344231         0.740653
 H        -4.227904         3.389116         0.389944
 H        -3.039130         1.534070        -1.041112
 H        -1.997666         2.958370        -1.286541
 H        -0.412839         2.319229         0.582895
 H        -0.899423         0.440118         2.184869
 H        -1.986502        -0.262794         1.022609
 H         0.285284        -1.465941         0.990850
 H        -2.693998         2.175872         2.566927
