19
Iteration:   318charge 0 multiplicity 1
 O        -3.483538         4.791785         1.705538
 C        -2.684323         3.918520         0.854146
 C        -3.226690         2.499666         1.010051
 C        -2.348462         1.486010         0.234536
 C        -1.056799         2.150167         0.675782
 C         0.025811         1.102403         1.097950
 C         0.362191         0.096116         0.120086
 O        -0.309244        -0.563960        -0.674993
 C        -1.911265         2.894756         1.701028
 H        -3.485642         5.625486         1.227066
 H        -2.459181         4.244745        -0.140401
 H        -4.224438         2.380619         1.472942
 H        -2.472427         0.400170         0.583031
 H        -2.578259         1.453277        -0.910155
 H        -0.634664         2.861655        -0.028861
 H         1.069692         1.564799         1.346835
 H        -0.336615         0.690968         2.128030
 H         1.459261         0.007722        -0.027100
 H        -1.923311         2.928725         2.756572
