19
Iteration:  3258
 O        -3.082354         4.859169         0.907143
 C        -3.165068         3.430645         0.924380
 C        -2.361273         2.910571         2.130318
 C        -2.530794         1.362022         2.301994
 C        -1.802561         1.141579         0.803789
 C        -0.423455         0.618832         0.913503
 C         0.420865         0.543156        -0.319690
 O         0.002781         0.643053        -1.474756
 C        -1.800760         2.717669         0.795262
 H        -2.964261         5.188316        -0.051288
 H        -4.145891         3.005887         0.566125
 H        -2.026360         3.494312         2.936391
 H        -1.970147         0.957424         3.063401
 H        -3.542423         0.999726         2.282596
 H        -2.391080         0.666933         0.056974
 H         0.146799         1.334109         1.641520
 H        -0.423851        -0.538566         1.292244
 H         1.501291         0.427135        -0.287471
 H        -1.277679         3.352441         0.159604
