19
Iteration:   905charge 0 multiplicity 1
 O        -3.703886         4.854712         1.921761
 C        -3.031050         3.901847         1.117344
 C        -2.995639         2.455893         1.596670
 C        -2.642460         1.412261         0.524956
 C        -1.375260         2.239188         0.140644
 C        -0.115582         1.257068         0.248463
 C        -0.106975        -0.168787        -0.221031
 O         0.897819        -0.868206        -0.014899
 C        -1.658469         3.329043         1.312174
 H        -3.360639         5.731989         1.658926
 H        -3.312351         3.874274         0.083670
 H        -3.295005         2.131965         2.566176
 H        -2.503487         0.373965         0.869035
 H        -3.426459         1.389942        -0.343491
 H        -1.384438         2.721048        -0.856402
 H         0.631176         1.814800        -0.356365
 H         0.353373         1.394067         1.235808
 H        -1.000292        -0.389119        -0.896612
 H        -1.010288         3.622654         2.147660
