19
Iteration:  2036charge 0 multiplicity 1
 O        -3.802835         4.679678         0.982327
 C        -3.340825         3.377946         1.074345
 C        -2.468290         3.048965         2.288147
 C        -2.106179         1.520435         2.290698
 C        -1.764373         1.489302         0.796816
 C        -0.368344         0.984610         0.467104
 C        -0.014521         0.326810        -0.822608
 O         1.088687        -0.116247        -1.022908
 C        -1.923204         3.108780         0.817883
 H        -3.697372         4.871204         0.056514
 H        -4.144477         2.685130         0.692203
 H        -2.354798         3.715671         3.100093
 H        -1.316816         1.270729         3.125625
 H        -2.872271         0.911698         2.510795
 H        -2.542034         0.998957         0.115899
 H         0.355125         1.761045         0.996629
 H        -0.220174         0.129902         1.192964
 H        -1.011196         0.045840        -1.411454
 H        -1.244927         3.905840         0.507667
