19
Iteration:  4285
 O        -3.646485         4.574192         2.153987
 C        -2.596515         4.088024         1.255212
 C        -3.016928         2.667372         0.698218
 C        -2.135777         2.125295        -0.446385
 C        -0.869030         2.296359         0.549056
 C        -0.067468         1.035388         0.951796
 C        -0.030720         0.011167        -0.229151
 O        -0.384785        -1.131818        -0.081693
 C        -1.846499         2.824111         1.632268
 H        -3.298864         5.123145         2.850381
 H        -2.056233         4.881715         0.702182
 H        -3.919023         2.245780         1.133717
 H        -2.383727         1.096880        -0.588257
 H        -2.160862         2.548709        -1.462941
 H        -0.259691         3.207950         0.226509
 H         0.888713         1.474724         1.121999
 H        -0.509648         0.478585         1.779410
 H         0.391734         0.399667        -1.229829
 H        -1.788348         2.443329         2.621886
