19
Iteration:   967
 O        -3.411978         4.819100         1.903848
 C        -3.125307         3.745914         0.984265
 C        -3.012412         2.393450         1.628535
 C        -2.555097         1.288286         0.594891
 C        -1.374838         2.160464         0.122709
 C        -0.085942         1.408595         0.407658
 C        -0.002733         0.207689        -0.305379
 O         0.533783        -0.832995         0.070447
 C        -1.756892         3.181935         1.189826
 H        -2.993467         5.644132         1.616925
 H        -3.928113         3.823795         0.159283
 H        -3.277832         2.259585         2.620612
 H        -2.111526         0.426593         1.003464
 H        -3.213992         0.930858        -0.144097
 H        -1.418125         2.752047        -0.805705
 H         0.685656         2.011005        -0.167600
 H         0.321302         1.288208         1.457935
 H        -0.321919         0.214421        -1.376529
 H        -1.051030         3.800101         1.826182
