19
Iteration:  4493
 O        -3.068475         5.050253         2.031228
 C        -2.357334         4.041741         1.327086
 C        -3.201863         3.041800         0.552323
 C        -2.470986         2.070602        -0.369928
 C        -1.313216         1.973477         0.723209
 C        -0.752198         0.539270         1.033166
 C        -0.215279        -0.111578        -0.270840
 O         0.836844        -0.771173        -0.226692
 C        -2.362654         2.597792         1.755727
 H        -2.540987         5.091543         2.899258
 H        -1.345548         4.446163         0.853761
 H        -4.323133         3.199759         0.355730
 H        -3.111250         1.128914        -0.393775
 H        -2.301372         2.263372        -1.508807
 H        -0.515756         2.672689         0.499179
 H         0.203895         0.638533         1.663160
 H        -1.263708        -0.285277         1.570899
 H        -0.672248         0.041422        -1.250294
 H        -2.642168         2.082325         2.667919
