19
Iteration:  3472
 O        -3.470076         4.787499         1.468506
 C        -3.126500         3.541986         0.944693
 C        -2.617556         2.566826         2.002958
 C        -2.367908         1.195704         1.372142
 C        -1.311076         1.872562         0.373992
 C         0.068644         1.304862         0.629394
 C         0.213698         0.040320        -0.018558
 O        -0.351431        -0.198424        -1.077904
 C        -1.693040         3.249824         1.083498
 H        -3.024361         5.519383         1.033300
 H        -3.765145         3.289744         0.120783
 H        -2.715343         2.723460         3.093226
 H        -1.863008         0.532192         2.108300
 H        -3.266824         0.753948         1.014153
 H        -1.647758         1.739513        -0.680950
 H         0.921856         1.958321         0.331976
 H         0.226222         1.113418         1.766205
 H         0.928567        -0.737972         0.390916
 H        -0.992916         4.007020         1.111920
