19
Iteration:  1620charge 0 multiplicity 1
 O        -3.588524         4.769822         1.032775
 C        -3.136520         3.429122         0.865221
 C        -2.620944         2.896611         2.155586
 C        -2.405612         1.366589         2.009282
 C        -1.573122         1.565596         0.734425
 C        -0.159243         1.022946         0.823161
 C         0.528204         0.403668        -0.383506
 O        -0.009366        -0.153784        -1.319385
 C        -1.666132         3.109353         0.942498
 H        -3.806930         5.173069         0.190798
 H        -3.951178         2.857381         0.352908
 H        -2.818610         3.465022         3.093817
 H        -1.832211         1.007157         2.933757
 H        -3.359126         0.840278         2.122275
 H        -2.034238         0.921869        -0.007711
 H         0.665108         1.688173         1.175807
 H        -0.052785         0.113312         1.499853
 H         1.640032         0.332239        -0.067324
 H        -0.819517         3.812749         0.706332
