19
Iteration:  4938charge 0 multiplicity 1
 O        -3.678497         4.394459         2.033842
 C        -2.444083         4.053189         1.287518
 C        -2.594600         3.060702         0.204692
 C        -1.175007         2.616752        -0.382012
 C        -0.791714         2.077953         1.001072
 C        -0.724814         0.647407         1.339599
 C        -0.640939        -0.509191         0.306222
 O        -0.405060        -0.428856        -0.898474
 C        -2.078998         2.586593         1.586119
 H        -3.539505         4.253625         2.958595
 H        -1.614855         4.825423         1.497304
 H        -3.575425         3.033945        -0.300630
 H        -1.341548         2.123474        -1.306174
 H        -0.499370         3.520212        -0.432926
 H         0.132614         2.650207         1.555788
 H         0.093420         0.393591         2.002377
 H        -1.660681         0.393263         2.008999
 H        -0.890336        -1.545813         0.628935
 H        -2.714234         2.075710         2.306850
