19
Iteration:  1551
 O        -3.488145         4.820366         1.057154
 C        -3.244172         3.416631         0.926558
 C        -2.725917         2.710107         2.115199
 C        -2.471406         1.229156         1.796947
 C        -1.449843         1.685839         0.662709
 C         0.213440         1.209229         0.782642
 C         0.521699         0.492822        -0.506560
 O        -0.246534        -0.349678        -0.957112
 C        -1.790501         3.151037         0.995114
 H        -3.044776         5.252272         0.333049
 H        -3.854728         2.960449         0.199837
 H        -2.909380         3.113179         3.084824
 H        -2.022206         0.706283         2.632886
 H        -3.226630         0.590630         1.448860
 H        -1.760197         1.595044        -0.343629
 H         0.854087         1.997689         1.093370
 H         0.286676         0.426486         1.628548
 H         1.565985         0.734222        -0.930633
 H        -1.119714         3.939414         1.173258
