19
Iteration:  2605
 O        -3.541602         4.389748         0.457938
 C        -3.239270         3.028593         0.842071
 C        -2.305047         2.981590         1.997456
 C        -2.076007         1.673866         2.625763
 C        -1.547447         1.137518         1.228947
 C        -0.010359         0.906622         1.003603
 C         0.349398         0.686992        -0.416653
 O        -0.394898         0.984269        -1.339840
 C        -1.821133         2.478788         0.639646
 H        -3.512226         4.516237        -0.537522
 H        -4.124012         2.428414         0.826417
 H        -2.278762         4.025762         2.535127
 H        -1.424490         1.531612         3.426290
 H        -3.072477         1.218706         3.035433
 H        -1.885007         0.282013         0.724449
 H         0.425329         1.846711         1.424227
 H         0.176756        -0.033169         1.587554
 H         1.411270         0.260711        -0.521341
 H        -1.280805         2.826048        -0.275874
