19
Iteration:  3449charge 0 multiplicity 1
 O        -3.452029         4.810469         1.367498
 C        -3.059183         3.516526         0.984971
 C        -2.640845         2.583371         2.049225
 C        -2.425179         1.202977         1.507383
 C        -1.419597         1.767264         0.481955
 C        -0.014102         1.271728         0.805243
 C         0.296576         0.079734        -0.159299
 O        -0.333720        -0.141315        -1.201783
 C        -1.621209         3.248861         0.996952
 H        -3.026470         5.405283         0.734430
 H        -3.674624         3.214824         0.172083
 H        -2.787200         2.920470         3.048634
 H        -1.756355         0.629006         2.219058
 H        -3.142405         0.566212         1.117114
 H        -1.738506         1.634451        -0.520226
 H         0.608377         2.154111         0.576579
 H         0.102934         1.047664         1.889891
 H         1.086702        -0.694831         0.074181
 H        -0.845346         3.961658         1.231406
