19
Iteration:  1761charge 0 multiplicity 1
 O        -3.247785         4.577264         0.452643
 C        -3.114118         3.252179         0.909158
 C        -2.289836         3.075463         2.105065
 C        -2.285963         1.510673         2.484944
 C        -1.815954         1.122105         1.011805
 C        -0.423535         0.345687         0.989489
 C         0.369119         0.665932        -0.308308
 O        -0.100395         1.107167        -1.333565
 C        -1.800880         2.653726         0.719558
 H        -3.210506         4.548868        -0.506712
 H        -3.883172         2.459814         0.749846
 H        -1.982318         3.959863         2.627767
 H        -1.385423         1.475070         3.224852
 H        -3.069477         1.033765         3.043009
 H        -2.601687         0.503172         0.458266
 H         0.193543         0.555514         1.817708
 H        -0.802103        -0.652399         1.060771
 H         1.399909         0.092892        -0.288117
 H        -1.085873         3.195102         0.130533
