19
Iteration:  2049charge 0 multiplicity 1
 O        -3.858156         4.696260         1.037018
 C        -3.346161         3.348291         1.089102
 C        -2.442217         3.081940         2.267977
 C        -2.191743         1.543540         2.342613
 C        -1.735131         1.547443         0.768433
 C        -0.376744         0.929897         0.471191
 C        -0.004218         0.360386        -0.877570
 O         1.098865        -0.171449        -0.960913
 C        -1.853474         3.092985         0.808105
 H        -3.956799         5.025123         0.095449
 H        -4.042127         2.446976         0.831583
 H        -2.448145         3.875096         3.011977
 H        -1.244809         1.268536         2.871981
 H        -3.034572         0.938303         2.622848
 H        -2.496501         1.032193         0.167751
 H         0.525768         1.667590         0.508581
 H        -0.138264         0.001061         1.156142
 H        -0.624676         0.413473        -1.875341
 H        -1.301774         3.673122         0.150617
