19
Iteration:  1980charge 0 multiplicity 1
 O        -3.643265         4.735035         1.010669
 C        -3.343688         3.358617         0.930384
 C        -2.459682         3.049070         2.125343
 C        -2.403362         1.434147         2.394752
 C        -1.636080         1.421331         0.925412
 C        -0.199292         0.986253         0.732226
 C         0.010805         0.127748        -0.529557
 O         0.865191         0.268309        -1.362624
 C        -1.877330         2.924163         0.686201
 H        -3.773242         4.924174         0.052925
 H        -4.258353         2.769260         0.706873
 H        -2.244372         3.884472         2.827990
 H        -1.746304         1.294373         3.336755
 H        -3.295939         0.971565         2.463161
 H        -2.236661         0.932884         0.111033
 H         0.522582         1.902380         0.896690
 H        -0.131105         0.285119         1.614184
 H        -0.661813        -0.706534        -0.602057
 H        -1.127824         3.675049         0.222970
