19
Iteration:   337
 O        -3.628412         4.923368         1.555885
 C        -2.780753         3.919232         1.042063
 C        -3.179704         2.438333         1.043323
 C        -2.414938         1.497620         0.137514
 C        -1.057047         2.046148         0.713649
 C         0.098487         1.077073         1.152421
 C         0.505343         0.034059         0.005491
 O        -0.378481        -0.514057        -0.678050
 C        -1.812695         2.911587         1.758448
 H        -3.237989         5.733148         1.252636
 H        -2.243187         4.419503         0.162723
 H        -4.188852         2.213550         1.533567
 H        -2.693973         0.579307         0.604546
 H        -2.619295         1.435751        -0.942370
 H        -0.443319         2.629833        -0.080112
 H         0.986066         1.717385         1.499717
 H        -0.217780         0.497439         2.037950
 H         1.568879        -0.434079         0.045323
 H        -1.459588         3.149798         2.819387
