19
Iteration:  2824
 O        -3.640345         4.659567         0.980978
 C        -3.404945         3.287896         1.020335
 C        -2.532425         2.901070         2.203081
 C        -2.129197         1.412046         2.324124
 C        -1.652490         1.524702         0.818580
 C        -0.141620         1.166907         0.717800
 C         0.168801         0.776656        -0.755014
 O         0.582658        -0.346539        -1.026774
 C        -1.987921         3.014403         0.644972
 H        -3.873000         4.996408         0.072048
 H        -4.129679         2.561475         0.630803
 H        -2.469631         3.646900         2.923816
 H        -1.211156         1.317392         2.821824
 H        -2.930880         0.631270         2.605040
 H        -2.198070         0.856729         0.085555
 H         0.632690         1.998684         1.064146
 H         0.173666         0.312160         1.185269
 H        -0.037070         1.501777        -1.593080
 H        -1.198288         3.745026         0.441535
