19
Iteration:  3058
 O        -3.216463         4.670775         0.702092
 C        -3.194093         3.323267         0.998079
 C        -2.219905         2.995312         2.109900
 C        -2.428749         1.574931         2.499082
 C        -1.999732         1.097881         1.018906
 C        -0.420447         0.493848         0.852100
 C        -0.168601         0.550720        -0.620387
 O         0.820965         0.945415        -1.207794
 C        -1.901146         2.584287         0.629565
 H        -3.531450         4.960739        -0.142667
 H        -4.165203         2.816670         0.887282
 H        -1.864909         3.788379         2.678091
 H        -1.704358         1.137726         3.118859
 H        -3.442003         1.356718         2.929210
 H        -2.642152         0.435669         0.433367
 H         0.299341         1.079925         1.563196
 H        -0.653242        -0.581951         1.314318
 H        -1.040548         0.293891        -1.303931
 H        -1.228324         3.032892        -0.057833
