19
Iteration:  4969
 O        -3.655902         4.491320         1.891036
 C        -2.483790         3.978851         1.211513
 C        -2.629739         2.925785         0.230016
 C        -1.177760         2.670355        -0.281917
 C        -0.772635         2.101950         1.167792
 C        -0.608416         0.533688         1.250660
 C        -0.656674        -0.569199         0.242189
 O        -0.490034        -0.291609        -0.909548
 C        -2.076803         2.602466         1.729372
 H        -3.427372         4.618106         2.869386
 H        -1.625888         4.753141         1.229263
 H        -3.519261         2.607421        -0.327458
 H        -1.225581         2.036284        -1.177359
 H        -0.607850         3.665703        -0.507731
 H         0.115877         2.635187         1.670497
 H         0.297511         0.388250         1.892231
 H        -1.445697         0.181487         1.967490
 H        -0.987755        -1.583625         0.678643
 H        -2.722063         2.155436         2.607064
