19
Iteration:  4319charge 0 multiplicity 1
 O        -3.438672         4.500327         2.233555
 C        -2.544006         4.022045         1.250886
 C        -3.175127         2.746908         0.599472
 C        -2.280350         2.341821        -0.546126
 C        -0.991878         2.393676         0.447446
 C        -0.252950         1.019924         0.894685
 C         0.040711        -0.001315        -0.162424
 O        -0.188042        -1.198917         0.087422
 C        -1.902055         2.737493         1.565747
 H        -2.997209         4.714915         3.074485
 H        -1.953890         4.689850         0.625466
 H        -4.130287         2.439432         0.971720
 H        -2.413797         1.251278        -0.598271
 H        -2.323561         2.902514        -1.470202
 H        -0.103899         3.131425         0.407103
 H         0.724894         1.308207         1.274967
 H        -0.673555         0.476134         1.765964
 H         0.675494         0.238951        -1.075421
 H        -1.854728         2.449191         2.537424
