19
Iteration:  1267
 O        -3.496294         4.861990         1.627739
 C        -3.325406         3.573622         1.040289
 C        -2.748057         2.492615         1.896652
 C        -2.488159         1.203903         1.056339
 C        -1.354417         1.912642         0.240544
 C         0.024953         1.416977         0.620031
 C         0.557888         0.336977        -0.267878
 O        -0.085585        -0.681356        -0.466552
 C        -1.809390         3.243972         0.966142
 H        -3.097688         5.390080         0.928544
 H        -4.101313         3.372402         0.235345
 H        -2.943973         2.522478         2.947084
 H        -1.960179         0.368885         1.585622
 H        -3.267806         0.763990         0.499334
 H        -1.218884         2.034508        -0.828599
 H         0.697886         2.321520         0.399623
 H         0.115102         1.227950         1.674470
 H         1.513714         0.493438        -0.776039
 H        -1.059009         4.017910         1.354503
