19
Iteration:  4023
 O        -3.096981         4.969252         1.597252
 C        -2.638877         3.923608         0.902244
 C        -3.202420         2.593310         1.413519
 C        -2.844557         1.446138         0.409436
 C        -1.338424         1.815101         0.578224
 C        -0.594807         0.623888         1.115743
 C        -0.072301        -0.194402         0.027128
 O         0.576288         0.226758        -0.899410
 C        -1.592525         2.909454         1.609277
 H        -2.526112         5.726088         1.374549
 H        -2.433727         4.031336        -0.138870
 H        -3.914031         2.725710         2.169149
 H        -3.002155         0.464889         0.834657
 H        -3.386273         1.402440        -0.673476
 H        -0.839103         2.106050        -0.319399
 H         0.250873         0.894911         1.854983
 H        -1.386829         0.029388         1.688210
 H        -0.398581        -1.312497         0.021830
 H        -0.930682         3.001488         2.563925
