19
Iteration:  1834charge 0 multiplicity 1
 O        -3.185852         4.522240         0.293220
 C        -3.155695         3.213096         0.904329
 C        -2.346230         3.074030         2.098675
 C        -2.200573         1.521097         2.553928
 C        -1.708180         1.218417         1.166894
 C        -0.437146         0.232672         0.960295
 C         0.178898         0.469489        -0.451989
 O        -0.110543         1.427652        -1.116676
 C        -1.747574         2.576608         0.643762
 H        -3.313876         4.448002        -0.664311
 H        -3.968686         2.564038         0.737269
 H        -1.809483         3.796102         2.717079
 H        -1.562173         1.305005         3.317487
 H        -3.176868         1.099355         2.850181
 H        -2.505407         0.731252         0.592681
 H         0.242056         0.662862         1.776345
 H        -0.614056        -0.849266         1.124392
 H         1.088928        -0.144977        -0.791603
 H        -0.970194         3.162948         0.173017
