19
Iteration:  2154charge 0 multiplicity 1
 O        -3.655862         4.661874         0.927495
 C        -3.419607         3.286933         1.110316
 C        -2.300216         3.014714         2.133524
 C        -2.137971         1.462100         2.305152
 C        -1.775483         1.284818         0.827551
 C        -0.205258         1.161364         0.738425
 C         0.429453         0.872077        -0.603892
 O         0.438713        -0.201260        -1.114594
 C        -2.080172         2.802298         0.604021
 H        -3.846333         4.807997        -0.058281
 H        -4.222727         2.611838         1.008630
 H        -1.970066         3.870922         2.642854
 H        -1.476553         1.041968         3.154646
 H        -3.209161         1.035103         2.569323
 H        -2.291148         0.677650         0.137112
 H         0.142656         2.142215         1.026162
 H         0.222117         0.406546         1.447404
 H         0.942673         1.694584        -1.240567
 H        -1.272167         3.312096         0.109856
