19
Iteration:  3648
 O        -3.401128         4.680667         2.050182
 C        -3.055937         3.756514         1.044562
 C        -2.777646         2.388531         1.651234
 C        -2.561161         1.319756         0.568588
 C        -1.300633         2.146834         0.061719
 C         0.038899         1.499606         0.436208
 C         0.170090         0.204554        -0.401650
 O        -0.133028        -0.871523         0.050422
 C        -1.649684         3.304309         1.105620
 H        -3.236729         5.574023         1.710204
 H        -3.599270         3.821940         0.103208
 H        -2.824726         2.218801         2.708486
 H        -2.326335         0.323237         0.710791
 H        -3.377189         1.383241        -0.202215
 H        -1.299187         2.372787        -0.946968
 H         0.873698         2.158061         0.213938
 H         0.079914         1.178731         1.409227
 H         0.472724         0.280359        -1.429616
 H        -0.920208         3.862890         1.770041
