19
Iteration:  1636charge 0 multiplicity 1
 O        -3.531430         4.795368         0.995717
 C        -3.274860         3.420290         0.949262
 C        -2.556800         2.892895         2.145594
 C        -2.459216         1.386789         2.136477
 C        -1.529024         1.553749         0.756837
 C        -0.088031         0.961220         0.926447
 C         0.544983         0.295431        -0.345515
 O         0.005638        -0.038187        -1.402795
 C        -1.775922         3.076000         0.796870
 H        -3.644596         5.041044         0.049520
 H        -3.863595         2.779396         0.335208
 H        -2.371266         3.523727         2.980719
 H        -1.867547         1.009830         2.918418
 H        -3.329835         0.727372         1.890857
 H        -1.960762         1.353422        -0.223900
 H         0.490711         1.740946         1.410081
 H        -0.223231         0.155011         1.577031
 H         1.665985         0.193344        -0.348834
 H        -1.152583         3.919474         0.710396
