19
Iteration:   988
 O        -3.386216         4.861901         1.934287
 C        -3.248100         3.694735         1.032599
 C        -2.967757         2.391694         1.648929
 C        -2.611767         1.246586         0.651891
 C        -1.348517         2.097373         0.124850
 C         0.059647         1.520823         0.445114
 C         0.155272         0.216534        -0.389560
 O         0.397283        -0.883131         0.056735
 C        -1.822528         3.241554         1.065960
 H        -2.830691         5.544989         1.536862
 H        -3.488415         3.938491        -0.017451
 H        -3.275362         2.191053         2.612926
 H        -2.199481         0.385197         1.215227
 H        -3.299080         0.855088        -0.073044
 H        -1.503845         2.394219        -0.971471
 H         0.653582         2.391388         0.507259
 H        -0.129062         1.215086         1.498265
 H         0.014987         0.313364        -1.567836
 H        -1.036696         3.764634         1.693311
