19
Iteration:   924charge 0 multiplicity 1
 O        -3.728202         4.778519         1.890092
 C        -3.035795         3.845220         1.037512
 C        -2.882802         2.522191         1.694659
 C        -2.730470         1.479657         0.502113
 C        -1.382463         2.166088         0.157618
 C        -0.096087         1.402762         0.261014
 C        -0.076520        -0.033860        -0.256026
 O         0.785215        -0.873361         0.027900
 C        -1.593424         3.125107         1.307114
 H        -3.276961         5.624012         1.892009
 H        -3.192863         4.020640        -0.096358
 H        -3.391329         2.470007         2.606746
 H        -2.521179         0.583449         0.963134
 H        -3.536551         1.326137        -0.181721
 H        -1.335985         2.536934        -0.846201
 H         0.791977         1.774667        -0.382875
 H         0.386440         1.406098         1.300081
 H        -0.839273        -0.305786        -1.053627
 H        -0.743051         3.559646         1.911868
