19
Iteration:  2055charge 0 multiplicity 1
 O        -3.875454         4.677028         1.072390
 C        -3.359896         3.359352         1.087285
 C        -2.405809         3.065959         2.209813
 C        -2.225992         1.579808         2.333538
 C        -1.759792         1.610146         0.816104
 C        -0.328401         0.894967         0.483109
 C         0.016221         0.350157        -0.919159
 O         1.093858        -0.194025        -0.948969
 C        -1.847456         3.029608         0.782837
 H        -4.001548         4.904283         0.135557
 H        -4.068471         2.630917         0.815338
 H        -2.310302         3.801119         3.008838
 H        -1.260340         1.364969         2.869929
 H        -3.093461         0.924454         2.670936
 H        -2.591443         1.214342         0.155093
 H         0.439457         1.655393         0.555014
 H        -0.156855         0.133176         1.165361
 H        -0.468405         0.689410        -1.842952
 H        -1.355998         3.859633         0.166897
