19
Iteration:  3314charge 0 multiplicity 1
 O        -3.243586         4.861764         1.103107
 C        -3.123803         3.515948         0.925770
 C        -2.507452         2.820997         2.137951
 C        -2.633021         1.274366         1.992776
 C        -1.645119         1.383541         0.722486
 C        -0.150080         0.813072         0.909798
 C         0.460423         0.521989        -0.376512
 O        -0.204982         0.169759        -1.347266
 C        -1.627886         2.924683         0.817544
 H        -3.186131         5.180752         0.211335
 H        -3.954835         2.964635         0.456389
 H        -2.394548         3.541184         3.011774
 H        -2.255024         0.608617         2.748492
 H        -3.537433         0.787704         1.708626
 H        -1.989781         1.043346        -0.204621
 H         0.353302         1.564417         1.583126
 H        -0.190752        -0.096973         1.579551
 H         1.526387         0.789360        -0.568571
 H        -0.804305         3.659298         1.001398
