19
Iteration:  3625charge 0 multiplicity 1
 O        -3.292009         4.662934         1.984957
 C        -3.063116         3.656016         1.056379
 C        -2.848520         2.364643         1.665264
 C        -2.531804         1.285313         0.651185
 C        -1.306638         2.173875         0.002255
 C        -0.028764         1.551248         0.456737
 C         0.298785         0.300609        -0.290774
 O        -0.316142        -0.750847        -0.034180
 C        -1.602979         3.178779         1.077197
 H        -2.908418         5.466128         1.627771
 H        -3.607812         3.745845         0.129287
 H        -3.113808         2.043560         2.700714
 H        -2.022804         0.444043         1.083056
 H        -3.371377         0.878707         0.077965
 H        -1.296945         2.516165        -0.963275
 H         0.793742         2.263772         0.325028
 H        -0.074376         1.234869         1.426079
 H         0.866215         0.312472        -1.150212
 H        -0.879152         3.940716         1.358158
