19
Iteration:  4749charge 0 multiplicity 1
 O        -3.024111         4.881938         2.003040
 C        -2.218593         3.973685         1.294432
 C        -2.996128         3.056607         0.435357
 C        -2.114092         2.142841        -0.416427
 C        -1.346116         1.758760         0.837183
 C        -1.224178         0.210226         1.057600
 C         0.045581        -0.261552         0.397966
 O         0.377330        -0.065203        -0.751986
 C        -2.321346         2.633070         1.726755
 H        -2.747735         5.194584         2.911732
 H        -1.187916         4.252270         0.860923
 H        -4.065546         3.309741         0.299653
 H        -2.672064         1.253884        -0.886657
 H        -1.692337         2.687154        -1.263065
 H        -0.352245         2.244462         0.752224
 H        -1.164803         0.032888         2.119160
 H        -2.035101        -0.468083         0.621963
 H         0.872409        -0.704019         1.147865
 H        -2.819159         2.562095         2.642230
