19
Iteration:  3272charge 0 multiplicity 1
 O        -3.053143         4.809394         0.922064
 C        -3.120021         3.400216         0.976481
 C        -2.418565         2.836795         2.177091
 C        -2.518807         1.309693         2.144600
 C        -1.833134         1.293200         0.798552
 C        -0.396241         0.707712         0.965753
 C         0.430283         0.583653        -0.351856
 O        -0.068903         0.520508        -1.444337
 C        -1.801085         2.810552         0.708740
 H        -3.225229         5.082338         0.028708
 H        -4.000318         2.962825         0.617222
 H        -2.147289         3.568972         2.992200
 H        -1.866120         0.820664         2.969663
 H        -3.517814         0.995624         2.230984
 H        -2.394385         0.754874         0.014472
 H         0.260030         1.327199         1.666178
 H        -0.384312        -0.328096         1.558134
 H         1.543307         0.538305        -0.089900
 H        -0.752521         3.310403         0.504197
