19
Iteration:  1870
 O        -3.325271         4.572204         0.542421
 C        -3.073627         3.190716         0.806937
 C        -2.361221         3.021215         2.080590
 C        -2.268216         1.543534         2.498774
 C        -1.817955         1.149271         1.069100
 C        -0.439317         0.510711         1.008874
 C         0.133474         0.342319        -0.439975
 O         0.109597         1.239919        -1.279938
 C        -1.680399         2.664003         0.691154
 H        -3.297014         4.596372        -0.436490
 H        -4.014883         2.587577         0.604782
 H        -2.033450         3.885895         2.642951
 H        -1.465017         1.449890         3.362943
 H        -3.182374         1.129669         2.927089
 H        -2.596742         0.673087         0.574191
 H         0.378803         1.259258         1.422703
 H        -0.403097        -0.354758         1.748541
 H         0.601141        -0.673835        -0.651505
 H        -0.776957         3.022445         0.185015
