19
Iteration:  2305
 O        -3.704294         4.259622         0.387192
 C        -3.121324         3.091802         0.833410
 C        -2.474352         3.040396         2.172793
 C        -2.021026         1.663638         2.624623
 C        -1.554994         1.335730         1.119619
 C        -0.127956         0.737312         1.005496
 C         0.396125         0.759380        -0.443301
 O        -0.310644         0.764176        -1.426419
 C        -1.688842         2.771868         0.752472
 H        -3.452143         4.223363        -0.584553
 H        -3.849943         2.172276         0.625271
 H        -2.327255         3.849745         2.895530
 H        -1.187871         1.695904         3.258988
 H        -2.712420         0.896014         3.046129
 H        -2.406758         0.567504         0.830417
 H         0.504251         1.267158         1.725310
 H        -0.079798        -0.335331         1.388527
 H         1.458443         0.687283        -0.580250
 H        -0.951002         3.406890         0.397446
