19
Iteration:  2526charge 0 multiplicity 1
 O        -3.937530         4.244147         0.474682
 C        -3.296647         3.057320         0.976185
 C        -2.205693         3.232289         2.029208
 C        -1.960296         1.783728         2.609818
 C        -1.601566         1.270696         1.167673
 C        -0.208045         0.544985         0.908455
 C         0.247020         0.372151        -0.433401
 O         0.124959         1.160879        -1.361527
 C        -1.714174         2.734007         0.661030
 H        -3.967716         4.283316        -0.526617
 H        -3.860964         2.164321         1.014388
 H        -2.029651         4.115775         2.566164
 H        -1.158210         1.814066         3.241498
 H        -2.920249         1.273769         3.145779
 H        -2.363250         0.555568         0.798740
 H         0.545172         0.989593         1.696811
 H        -0.279771        -0.447816         1.374297
 H         0.794964        -0.592000        -0.757152
 H        -1.225009         3.048250        -0.228457
