19
Iteration:  4095
 O        -3.133457         4.945928         1.856080
 C        -2.683842         3.948412         1.060631
 C        -3.256108         2.568725         1.215354
 C        -2.703260         1.593795         0.088634
 C        -1.317032         1.982225         0.476852
 C        -0.450952         0.859424         1.096432
 C         0.268363        -0.088927         0.217154
 O         0.192490        -0.329193        -0.934441
 C        -1.758452         2.866139         1.577383
 H        -2.313712         5.435585         2.130333
 H        -2.377143         4.276530         0.026682
 H        -4.149966         2.553507         1.812559
 H        -3.062484         0.552811         0.170708
 H        -2.842750         1.839554        -0.915220
 H        -0.734249         2.491540        -0.398092
 H         0.274030         1.410273         1.659983
 H        -0.967813         0.216767         1.790379
 H         1.061310        -0.643004         0.845024
 H        -1.342118         2.830359         2.551231
