19
Iteration:   384charge 0 multiplicity 1
 O        -3.470809         4.790530         1.503384
 C        -2.762237         3.760607         0.823681
 C        -3.102745         2.345349         1.223324
 C        -2.430181         1.470745         0.279106
 C        -1.076720         2.148725         0.657066
 C        -0.139660         1.133578         1.216313
 C         0.305710         0.011573         0.137682
 O        -0.286830        -0.374335        -0.842734
 C        -1.739310         3.110495         1.737612
 H        -2.877445         5.224714         2.163304
 H        -2.591287         3.922181        -0.242633
 H        -4.120408         2.271089         1.549142
 H        -2.349577         0.339026         0.508592
 H        -2.694437         1.578924        -0.839124
 H        -0.530250         2.705970        -0.165854
 H         0.861172         1.556545         1.681973
 H        -0.631393         0.472218         2.052408
 H         1.426201        -0.222265         0.343758
 H        -1.377585         3.304496         2.685404
