19
Iteration:  4357
 O        -3.403152         4.660973         2.414562
 C        -2.721820         4.078196         1.263912
 C        -3.197568         2.815193         0.581230
 C        -2.242687         2.382295        -0.606517
 C        -1.009248         2.256873         0.458420
 C        -0.449580         0.851109         0.891878
 C         0.103144        -0.061217        -0.170058
 O         0.060651        -1.278598         0.098178
 C        -1.907227         2.844159         1.476034
 H        -2.673918         4.894907         2.977744
 H        -2.319835         4.930802         0.684246
 H        -4.110954         2.200475         0.710620
 H        -2.396759         1.317291        -1.001644
 H        -2.215880         3.063658        -1.518405
 H        -0.151412         2.894320         0.090647
 H         0.489339         1.069713         1.500000
 H        -1.205678         0.248260         1.427901
 H         0.563431         0.355158        -1.138216
 H        -1.735132         2.461563         2.580882
