19
Iteration:  1174
 O        -3.730743         4.757851         1.413475
 C        -3.169196         3.593901         0.924083
 C        -2.921692         2.442543         1.879376
 C        -2.302681         1.214845         1.094032
 C        -1.071495         2.123662         0.527654
 C         0.332749         1.535318         0.433286
 C         0.398831         0.263836        -0.502530
 O        -0.372400        -0.724650        -0.380446
 C        -1.725648         3.262585         1.388190
 H        -3.652946         5.481161         0.749824
 H        -3.379423         3.181259        -0.050832
 H        -3.258967         2.317605         3.006388
 H        -1.937122         0.471310         1.865636
 H        -3.028685         0.615707         0.340958
 H        -1.512790         2.312526        -0.490602
 H         1.127137         2.257816         0.261722
 H         0.552710         1.050401         1.444916
 H         0.982559         0.307303        -1.412067
 H        -1.084517         3.808036         2.050677
