19
Iteration:  1049
 O        -3.612399         4.796153         1.791276
 C        -3.134736         3.731644         1.012725
 C        -2.739698         2.373858         1.837536
 C        -2.567148         1.280878         0.824272
 C        -1.385251         2.081947         0.080740
 C        -0.018064         1.415237         0.485923
 C         0.441965         0.267184        -0.294085
 O         0.054115        -0.856398        -0.159195
 C        -1.716687         3.287164         1.047570
 H        -3.749399         5.594894         1.280596
 H        -3.564286         3.739143        -0.011685
 H        -2.724756         2.306245         2.927671
 H        -2.200914         0.326086         1.290755
 H        -3.392819         1.048409         0.123552
 H        -1.513052         2.433428        -0.921027
 H         0.779568         2.219351         0.312513
 H         0.014654         1.108416         1.533868
 H         1.392307         0.528802        -0.893272
 H        -1.011665         3.967070         1.544736
