19
Iteration:  4533charge 0 multiplicity 1
 O        -3.121048         4.939864         2.049422
 C        -2.192241         4.095728         1.190378
 C        -3.160344         3.117163         0.541706
 C        -2.545808         2.124524        -0.366461
 C        -1.433244         1.833918         0.708897
 C        -0.944492         0.380488         1.062933
 C        -0.243643        -0.324423        -0.114114
 O         0.992838        -0.493142        -0.319097
 C        -2.230141         2.683462         1.738246
 H        -2.680710         5.007915         2.881766
 H        -1.331444         4.539556         0.796328
 H        -4.161951         3.453383         0.703581
 H        -3.164708         1.196360        -0.386775
 H        -2.338078         2.532537        -1.338036
 H        -0.378225         2.338332         0.541807
 H        -0.086386         0.563896         1.754590
 H        -1.741903        -0.139814         1.659158
 H        -1.002534        -0.398687        -0.957356
 H        -2.357812         2.411510         2.750751
