19
Iteration:  4208
 O        -3.562424         4.675266         1.844501
 C        -2.634782         3.900535         1.147325
 C        -2.990091         2.453622         1.018168
 C        -2.185449         1.904956        -0.174147
 C        -0.865613         2.242985         0.568332
 C        -0.171812         1.025092         1.158797
 C         0.081030         0.124314        -0.142469
 O        -0.552402        -0.830758        -0.491164
 C        -1.689484         2.896498         1.721333
 H        -3.337419         5.448632         2.360547
 H        -2.462547         4.359518         0.155900
 H        -3.911512         2.152018         1.608479
 H        -2.233021         0.914777        -0.508524
 H        -2.309646         2.451820        -1.156364
 H        -0.081181         3.030516         0.120682
 H         0.720229         1.409946         1.684942
 H        -0.751700         0.295020         1.727795
 H         0.787669         0.582544        -0.847651
 H        -1.462397         2.827133         2.859979
