19
Iteration:  3771charge 0 multiplicity 1
 O        -3.184383         4.904820         2.027706
 C        -3.017156         3.946565         1.021918
 C        -3.214802         2.554190         1.544640
 C        -2.818075         1.456206         0.455325
 C        -1.446354         2.143244         0.227446
 C        -0.177646         1.249715         0.441086
 C        -0.127116        -0.158823        -0.236022
 O         0.888692        -0.822139        -0.253580
 C        -1.782741         3.125990         1.307831
 H        -2.542634         5.652765         2.013745
 H        -3.487370         4.173310         0.050991
 H        -3.475998         2.302614         2.639019
 H        -2.603458         0.539095         1.037023
 H        -3.537580         1.333758        -0.365053
 H        -1.398384         2.625516        -0.716322
 H         0.666300         1.877215         0.340222
 H        -0.212133         1.023277         1.489495
 H        -0.964302        -0.594548        -0.730649
 H        -1.008033         3.509891         1.944467
