19
Iteration:  4309
 O        -3.524224         4.548153         2.200772
 C        -2.571669         3.987254         1.307877
 C        -3.108337         2.768731         0.644532
 C        -2.230504         2.251804        -0.527253
 C        -0.889625         2.273912         0.406911
 C        -0.199515         1.032137         0.890251
 C         0.037790         0.001659        -0.143714
 O        -0.255461        -1.135762         0.057687
 C        -1.867472         2.745661         1.641516
 H        -3.075018         4.794220         3.052452
 H        -2.176894         4.747576         0.658851
 H        -4.167424         2.671356         0.819532
 H        -2.636048         1.213739        -0.889434
 H        -2.158293         2.831408        -1.458980
 H        -0.294410         3.198473        -0.002472
 H         0.762060         1.463526         1.177931
 H        -0.814590         0.551499         1.702197
 H         0.423062         0.411667        -1.161227
 H        -1.777537         2.332795         2.575849
