19
Iteration:  1663
 O        -3.511355         4.802687         0.907828
 C        -3.296508         3.413056         1.042892
 C        -2.504149         2.968690         2.128321
 C        -2.372502         1.423378         2.113457
 C        -1.571409         1.328314         0.776369
 C        -0.132748         0.931306         0.902968
 C         0.498374         0.255578        -0.283130
 O         0.004391         0.262936        -1.376822
 C        -1.773218         2.938174         0.711762
 H        -3.185108         5.022269         0.017605
 H        -4.187242         2.779717         0.671978
 H        -2.348938         3.585633         3.045437
 H        -1.826678         0.988201         3.093523
 H        -3.260772         0.759036         2.059272
 H        -2.180397         0.901642        -0.161836
 H         0.395630         1.836590         1.335840
 H        -0.136036        -0.041262         1.599842
 H         1.490287        -0.153896         0.094047
 H        -1.157965         3.776629         0.208811
