19
Iteration:  2234charge 0 multiplicity 1
 O        -3.716513         4.398774         0.603187
 C        -3.149504         3.112766         0.764958
 C        -2.455897         3.007682         2.160112
 C        -2.059984         1.579237         2.496099
 C        -1.565323         1.309993         1.095642
 C        -0.137275         0.861271         0.954819
 C         0.328827         0.944290        -0.489941
 O        -0.109178         0.260528        -1.399158
 C        -1.722914         2.869961         0.828585
 H        -3.950214         4.561599        -0.371974
 H        -3.717951         2.274394         0.486826
 H        -2.250147         4.032931         2.621678
 H        -1.372894         1.487657         3.502563
 H        -2.915047         0.922492         2.764622
 H        -2.237783         0.788535         0.418644
 H         0.511343         1.410921         1.652960
 H        -0.033338        -0.099903         1.303364
 H         0.891478         1.842491        -0.761038
 H        -0.911761         3.598515         0.560567
