19
Iteration:  1586charge 0 multiplicity 1
 O        -3.606060         4.774281         1.063895
 C        -3.140921         3.491328         0.875189
 C        -2.692022         2.769843         2.097118
 C        -2.451859         1.282522         1.929818
 C        -1.494083         1.648940         0.735445
 C         0.021626         1.118784         0.815781
 C         0.430488         0.494480        -0.448328
 O        -0.073609        -0.326715        -1.162447
 C        -1.671092         3.145098         0.953516
 H        -3.163931         5.276775         0.386140
 H        -3.576137         2.677992         0.283458
 H        -2.902807         3.263042         3.044375
 H        -1.805456         1.100929         2.880815
 H        -3.389110         0.741659         1.862288
 H        -1.961211         1.267315        -0.167278
 H         0.600582         1.985304         1.064745
 H         0.007588         0.242456         1.543694
 H         1.562733         0.545580        -0.765811
 H        -0.866706         3.912291         1.124756
