19
Iteration:  2066charge 0 multiplicity 1
 O        -3.880347         4.644916         1.129401
 C        -3.368160         3.379333         1.100070
 C        -2.386056         3.099842         2.155337
 C        -2.194351         1.615963         2.282614
 C        -1.745356         1.477115         0.803032
 C        -0.389825         0.908751         0.513852
 C         0.098585         0.438288        -0.885891
 O         1.100385        -0.295265        -0.986800
 C        -1.933023         3.144702         0.726249
 H        -4.179156         4.867577         0.199661
 H        -4.082052         2.666134         0.809321
 H        -2.042965         3.755062         2.936382
 H        -1.500780         1.400795         3.143088
 H        -3.119154         0.980036         2.631793
 H        -2.469793         0.987315         0.097841
 H         0.314401         1.639997         0.860440
 H        -0.116293         0.178627         1.221432
 H        -0.479854         0.848266        -1.696356
 H        -1.133523         3.897240         0.362879
