19
Iteration:  4378
 O        -3.489844         4.638709         2.308699
 C        -2.592350         4.115506         1.205632
 C        -3.091780         2.843857         0.733731
 C        -2.300241         2.375111        -0.489537
 C        -1.041896         2.230945         0.370757
 C        -0.642345         0.857417         0.877129
 C         0.040150        -0.094570        -0.125197
 O         0.256802        -1.304220        -0.012932
 C        -1.832971         2.850045         1.571263
 H        -2.932528         5.120520         2.988793
 H        -2.220325         4.892883         0.558553
 H        -4.139688         2.605511         0.972446
 H        -2.601038         1.442316        -1.098054
 H        -2.141100         3.047324        -1.347285
 H        -0.015632         2.640433         0.044682
 H         0.003066         0.978352         1.784089
 H        -1.588230         0.335806         1.212496
 H         0.518577         0.438285        -1.010763
 H        -1.943076         2.555363         2.687231
