19
Iteration:   120charge 0 multiplicity 1
 O        -3.241240         5.010296         1.783435
 C        -2.749175         3.986629         0.986582
 C        -3.278816         2.429731         0.891670
 C        -2.443640         1.475291        -0.029004
 C        -1.134436         2.021260         0.589718
 C        -0.114295         1.019281         1.223065
 C         0.511804         0.192360         0.038268
 O        -0.184362        -0.627159        -0.505878
 C        -1.997210         2.850789         1.637182
 H        -3.978572         4.672963         2.365359
 H        -2.417372         4.478115         0.104077
 H        -4.217997         2.183678         1.307532
 H        -2.749095         0.503550         0.253385
 H        -2.446741         1.604880        -1.156608
 H        -0.722887         2.818326        -0.061376
 H         0.529478         1.509243         1.938071
 H        -0.729724         0.303231         1.757616
 H         1.387276         0.605477        -0.470693
 H        -1.704265         3.066459         2.692987
