19
Iteration:  2214charge 0 multiplicity 1
 O        -3.652564         4.496828         0.681958
 C        -3.261346         3.145228         0.902138
 C        -2.413640         2.937157         2.132032
 C        -2.176213         1.530501         2.467198
 C        -1.556940         1.349450         1.015382
 C        -0.060617         0.945665         0.972095
 C         0.260971         1.005013        -0.516906
 O        -0.009669         0.123161        -1.302508
 C        -1.752829         2.822567         0.661809
 H        -3.966674         4.768607        -0.192663
 H        -4.007546         2.323070         0.632117
 H        -2.571561         3.801107         2.780615
 H        -1.290818         1.598504         3.221210
 H        -2.906162         0.840810         2.821829
 H        -2.156382         0.631306         0.326795
 H         0.640481         1.611105         1.483104
 H         0.127487        -0.062097         1.269072
 H         0.960025         1.909009        -0.815238
 H        -1.043927         3.421863        -0.029688
