19
Iteration:  3628
 O        -3.304624         4.660362         1.998370
 C        -3.076909         3.652992         1.063212
 C        -2.821907         2.381920         1.677903
 C        -2.516976         1.306768         0.619505
 C        -1.298240         2.179264         0.021799
 C        -0.030274         1.521310         0.439213
 C         0.264446         0.295841        -0.291164
 O        -0.289475        -0.751186        -0.018797
 C        -1.594651         3.153605         1.059388
 H        -2.922719         5.512440         1.601678
 H        -3.661436         3.723080         0.116568
 H        -3.263212         2.099670         2.608045
 H        -2.080986         0.533505         1.197068
 H        -3.409773         0.898245         0.013596
 H        -1.371104         2.551347        -1.027209
 H         0.753854         2.261358         0.326770
 H        -0.073866         1.220682         1.490867
 H         0.882274         0.374988        -1.218094
 H        -0.792404         3.940977         1.386481
