19
Iteration:  1843charge 0 multiplicity 1
 O        -3.177230         4.530027         0.345598
 C        -3.161448         3.190690         0.836345
 C        -2.322459         3.043773         2.122122
 C        -2.193042         1.497715         2.530361
 C        -1.723443         1.159793         1.096513
 C        -0.427455         0.311449         1.039210
 C         0.179713         0.452873        -0.438372
 O        -0.068327         1.412606        -1.184864
 C        -1.763711         2.666043         0.691130
 H        -3.449068         4.347274        -0.568707
 H        -4.072843         2.591061         0.826844
 H        -2.001418         3.933279         2.738313
 H        -1.455776         1.457105         3.244544
 H        -3.223930         1.156659         2.802382
 H        -2.645894         0.611441         0.565233
 H         0.355746         0.513026         1.767505
 H        -0.745454        -0.674467         1.362355
 H         0.797874        -0.495103        -0.741025
 H        -1.011465         3.248540         0.069211
