19
Iteration:  2533charge 0 multiplicity 1
 O        -3.885045         4.285053         0.412175
 C        -3.319909         3.013126         1.017991
 C        -2.190618         3.204599         2.022714
 C        -1.989911         1.754070         2.634215
 C        -1.561870         1.275845         1.131041
 C        -0.217516         0.534611         0.985966
 C         0.256569         0.374309        -0.484319
 O         0.082735         1.182797        -1.384045
 C        -1.764391         2.708661         0.706550
 H        -3.889169         4.228626        -0.587597
 H        -3.938342         2.102083         0.930761
 H        -2.069290         4.110499         2.619974
 H        -1.129943         1.974889         3.408516
 H        -2.711322         1.334854         3.262100
 H        -2.243245         0.522816         0.752658
 H         0.597954         1.205580         1.339038
 H        -0.293887        -0.434992         1.477509
 H         0.880383        -0.558450        -0.545593
 H        -1.255789         3.270253        -0.116557
