19
Iteration:   991
 O        -3.395953         4.847936         1.938327
 C        -3.253863         3.682768         1.010361
 C        -2.923222         2.419633         1.647363
 C        -2.623572         1.238737         0.662443
 C        -1.370289         2.069128         0.124256
 C         0.046211         1.522358         0.445862
 C         0.195660         0.222415        -0.381602
 O         0.369279        -0.882300         0.043571
 C        -1.793086         3.239082         1.072852
 H        -2.802882         5.556441         1.552170
 H        -3.629856         3.985008        -0.065946
 H        -3.354749         2.305319         2.685480
 H        -2.255062         0.415449         1.105674
 H        -3.328436         0.858134        -0.047277
 H        -1.485784         2.499096        -0.863003
 H         0.610592         2.495840         0.503971
 H        -0.028590         1.137453         1.529168
 H         0.133239         0.316513        -1.488423
 H        -1.087326         3.813599         1.646169
