19
Iteration:  1446
 O        -3.772310         4.696735         1.461870
 C        -3.247570         3.498700         1.000162
 C        -2.621969         2.641832         2.017105
 C        -2.156703         1.313870         1.346410
 C        -1.316380         2.012830         0.327947
 C         0.173144         1.505122         0.493839
 C         0.188327        -0.015012         0.115281
 O        -0.129158        -0.552079        -0.951793
 C        -1.700367         3.322930         0.981079
 H        -3.639092         5.438109         0.872854
 H        -3.873001         3.050069         0.127096
 H        -2.926127         2.753833         3.010697
 H        -1.525200         0.715409         2.053500
 H        -3.071337         0.899357         0.947323
 H        -1.565133         1.989683        -0.833518
 H         0.816480         2.133511        -0.186233
 H         0.232567         1.576861         1.543775
 H         0.815834        -0.730325         0.812050
 H        -1.008314         4.071341         1.312424
