19
Iteration:  2453charge 0 multiplicity 1
 O        -3.862920         4.421768         0.593061
 C        -3.477686         3.108525         1.079905
 C        -2.238239         3.136264         1.906316
 C        -1.828373         1.742817         2.544384
 C        -1.682764         1.233661         1.106857
 C        -0.262818         0.537848         0.944077
 C         0.397201         0.355280        -0.378600
 O         0.342728         1.097081        -1.354702
 C        -2.023512         2.668048         0.545844
 H        -4.199901         4.346541        -0.334541
 H        -4.247490         2.340435         1.316391
 H        -2.004098         4.114686         2.280566
 H        -0.888534         2.049632         3.057536
 H        -2.562645         1.410759         3.169678
 H        -2.346748         0.391610         0.825466
 H         0.580473         1.078723         1.395625
 H        -0.183925        -0.452030         1.465166
 H         1.040845        -0.626872        -0.540801
 H        -1.803824         3.279565        -0.269103
