19
Iteration:   998
 O        -3.418028         4.797977         1.931098
 C        -3.234075         3.724952         0.938151
 C        -2.880218         2.441971         1.674034
 C        -2.639745         1.250742         0.674654
 C        -1.428517         2.043666         0.137118
 C        -0.010244         1.516017         0.473529
 C         0.295754         0.271428        -0.379179
 O         0.312486        -0.893738         0.035506
 C        -1.733282         3.218757         1.091289
 H        -2.820648         5.513383         1.620839
 H        -3.922693         3.829047         0.119223
 H        -3.289436         2.466598         2.630357
 H        -2.279827         0.268863         1.155595
 H        -3.459706         0.990558        -0.016722
 H        -1.397627         2.520425        -0.890083
 H         0.665798         2.338665         0.305841
 H         0.190023         1.119097         1.463028
 H         0.329291         0.452875        -1.529247
 H        -1.086433         3.983155         1.607548
