19
Iteration:  1256
 O        -3.559664         4.849845         1.603537
 C        -3.291654         3.571227         1.001969
 C        -2.750807         2.452274         1.860817
 C        -2.492822         1.186072         1.074167
 C        -1.336827         1.929708         0.215051
 C         0.140965         1.485047         0.666422
 C         0.529552         0.329997        -0.295709
 O        -0.136210        -0.693120        -0.479232
 C        -1.764170         3.254970         1.044819
 H        -3.075173         5.586224         1.136852
 H        -3.851798         3.325699         0.050601
 H        -2.664634         2.522446         2.909116
 H        -2.210692         0.429165         1.833240
 H        -3.363516         0.843131         0.582611
 H        -1.632772         1.673923        -0.780872
 H         0.932307         2.321469         0.611683
 H         0.097598         1.092349         1.662592
 H         1.332637         0.561651        -0.902748
 H        -1.183684         4.195992         1.318528
