19
Iteration:  3165
 O        -3.216061         4.686839         0.553388
 C        -3.056341         3.338927         0.928176
 C        -2.094584         3.002346         2.110086
 C        -2.303728         1.568887         2.380247
 C        -1.851642         1.089502         1.025541
 C        -0.645203         0.146030         0.753137
 C         0.021602         0.343527        -0.493997
 O         0.152634         1.457380        -0.994901
 C        -1.654167         2.628939         0.684351
 H        -3.540726         4.714663        -0.318558
 H        -3.962064         2.625193         0.827275
 H        -2.045120         3.802645         2.865914
 H        -1.506633         1.348790         3.227597
 H        -3.332563         1.160241         2.739736
 H        -2.690863         0.519645         0.499013
 H         0.039438         0.172557         1.600214
 H        -1.056057        -0.884222         0.833040
 H         0.572851        -0.638585        -0.801358
 H        -0.769325         3.101059         0.116212
