19
Iteration:  4346
 O        -3.367222         4.605932         2.421754
 C        -2.706720         4.044838         1.206975
 C        -3.219234         2.765933         0.538540
 C        -2.192615         2.354234        -0.551036
 C        -1.023427         2.315703         0.397197
 C        -0.379577         0.974813         0.847828
 C         0.088745        -0.111311        -0.155080
 O        -0.004677        -1.262076         0.090345
 C        -1.937950         2.830871         1.557528
 H        -2.681797         4.820512         3.062303
 H        -2.300517         4.769502         0.467906
 H        -4.306196         2.570111         0.749536
 H        -2.562913         1.327989        -0.948543
 H        -1.956136         3.076730        -1.416257
 H        -0.126685         2.978069         0.252394
 H         0.428122         1.213608         1.625936
 H        -1.023074         0.387171         1.551801
 H         0.622791         0.211035        -1.118957
 H        -2.029694         2.591896         2.728741
