19
Iteration:  3394
 O        -3.433063         4.947353         1.189232
 C        -3.084654         3.562049         0.922850
 C        -2.717672         2.704995         2.158753
 C        -2.590077         1.211535         1.850474
 C        -1.458460         1.714620         0.726406
 C        -0.063123         1.023828         0.674326
 C         0.441984         0.207113        -0.408188
 O        -0.136380        -0.236927        -1.417867
 C        -1.661481         3.177335         1.209674
 H        -3.315558         5.422486         0.385068
 H        -3.633012         3.177099         0.099514
 H        -2.803992         3.172873         3.115357
 H        -2.101372         0.610956         2.675699
 H        -3.361732         0.726542         1.423856
 H        -1.891709         1.631683        -0.272313
 H         0.693891         1.814815         0.848000
 H         0.100736         0.440793         1.656957
 H         1.572832         0.062080        -0.189952
 H        -0.888096         3.946449         1.485499
