19
Iteration:  4617
 O        -3.047430         4.847557         2.071555
 C        -2.306425         4.057952         1.112560
 C        -3.128833         2.840650         0.770110
 C        -2.348479         2.249144        -0.411795
 C        -1.238183         1.813397         0.537446
 C        -1.327575         0.278041         0.897905
 C        -0.307607        -0.485174         0.006195
 O         0.758018        -0.004721        -0.149041
 C        -1.900323         2.755679         1.699799
 H        -2.387314         5.337809         2.648017
 H        -1.841756         4.530297         0.140550
 H        -4.155198         2.812059         1.070861
 H        -2.828841         1.300688        -0.896867
 H        -2.113524         2.964638        -1.251294
 H        -0.246108         2.008794         0.282779
 H        -0.947223         0.078570         1.877693
 H        -2.427556         0.072749         0.956122
 H        -0.417634        -1.585108        -0.403294
 H        -1.613462         2.477214         2.710414
