19
Iteration:  2366charge 0 multiplicity 1
 O        -3.588976         4.379381         0.482640
 C        -3.407361         3.072092         1.005960
 C        -2.227646         3.036141         1.913318
 C        -2.018716         1.607714         2.489291
 C        -1.546066         1.124788         1.067715
 C         0.014433         0.913794         1.075205
 C         0.320046         0.514993        -0.333511
 O        -0.164095         1.088909        -1.273095
 C        -1.969383         2.529223         0.564682
 H        -3.880126         4.338747        -0.478392
 H        -4.245410         2.480060         1.189868
 H        -1.953872         3.912739         2.389961
 H        -1.312289         1.472359         3.451654
 H        -2.994019         1.298237         2.876278
 H        -2.095614         0.342802         0.601397
 H         0.634896         1.897958         1.251345
 H         0.098727         0.159556         1.893510
 H         0.965369        -0.345091        -0.432828
 H        -1.491311         2.983940        -0.323097
