19
Iteration:  1123
 O        -3.718164         4.654072         1.551040
 C        -3.019233         3.618037         0.865006
 C        -2.771045         2.371220         1.784395
 C        -2.379811         1.150713         1.048567
 C        -1.226676         2.012079         0.264547
 C         0.180307         1.550114         0.569733
 C         0.300323         0.392766        -0.358145
 O        -0.347798        -0.615269        -0.265921
 C        -1.623024         3.235437         1.224667
 H        -3.229197         5.517258         1.448852
 H        -3.239508         3.406224        -0.219297
 H        -3.095298         2.667578         2.852423
 H        -1.795883         0.463786         1.544774
 H        -3.202039         0.647933         0.603873
 H        -1.564912         2.203729        -0.767735
 H         0.785251         2.435477         0.358457
 H         0.362904         1.172573         1.586594
 H         0.963824         0.606057        -1.163188
 H        -0.813745         3.860553         1.635234
