19
Iteration:  2005charge 0 multiplicity 1
 O        -3.698739         4.725777         0.987724
 C        -3.394556         3.372696         1.033541
 C        -2.529168         3.063850         2.251443
 C        -2.194980         1.505541         2.284752
 C        -1.684337         1.449731         0.788969
 C        -0.177096         0.924255         0.680400
 C        -0.055708         0.184803        -0.619067
 O         0.986714         0.093766        -1.233708
 C        -1.937201         3.007424         0.754163
 H        -3.460666         4.970790         0.046178
 H        -4.319925         2.752664         0.691383
 H        -2.583784         3.729917         3.078887
 H        -1.389299         1.281992         3.045603
 H        -3.101173         0.870729         2.472782
 H        -2.352166         1.035390         0.063672
 H         0.410239         1.885598         0.762841
 H         0.022517         0.263372         1.629035
 H        -0.964192        -0.212346        -1.020364
 H        -1.495402         3.805892         0.257519
