19
Iteration:  4327charge 0 multiplicity 1
 O        -3.377248         4.484424         2.256004
 C        -2.597985         4.041418         1.203381
 C        -3.145981         2.799684         0.645189
 C        -2.263449         2.335797        -0.517652
 C        -1.030965         2.417085         0.498922
 C        -0.286531         1.057873         0.846362
 C         0.062197        -0.075475        -0.125825
 O        -0.133726        -1.227356         0.080465
 C        -1.984151         2.737360         1.533449
 H        -2.735805         4.653941         2.996615
 H        -2.030551         4.884539         0.707100
 H        -4.102440         2.292152         0.750205
 H        -2.273788         1.371254        -0.880195
 H        -2.363108         2.883781        -1.469149
 H        -0.266094         3.102210         0.247357
 H         0.699153         1.219149         1.320261
 H        -0.849355         0.566721         1.605939
 H         0.605077         0.282370        -1.006776
 H        -1.888149         2.415791         2.589133
