19
Iteration:  1231charge 0 multiplicity 1
 O        -3.682253         4.678917         1.541580
 C        -3.118408         3.563397         0.890334
 C        -2.744363         2.504079         1.892329
 C        -2.454657         1.234878         1.099271
 C        -1.273271         1.956633         0.348084
 C         0.028381         1.405961         0.613662
 C         0.451386         0.393249        -0.382686
 O        -0.207313        -0.647559        -0.431899
 C        -1.607363         3.300471         1.151329
 H        -3.253023         5.519747         1.320282
 H        -3.547280         3.320433        -0.065568
 H        -3.188892         2.841421         2.851255
 H        -2.062706         0.480580         1.720625
 H        -3.403303         0.794970         0.598786
 H        -1.485313         1.844288        -0.725564
 H         0.636637         2.225219         0.369060
 H         0.403937         1.116312         1.633949
 H         1.282060         0.553695        -1.023828
 H        -0.876131         4.065434         1.441055
