19
Iteration:  4416charge 0 multiplicity 1
 O        -3.460073         4.745499         2.127473
 C        -2.512673         4.222693         1.190467
 C        -3.065400         2.800536         0.818548
 C        -2.284376         2.259758        -0.332034
 C        -1.044048         2.048000         0.587583
 C        -0.904406         0.632963         0.825266
 C         0.022184         0.010478        -0.233705
 O         0.441496        -1.140646        -0.092356
 C        -1.840098         2.888507         1.659226
 H        -2.933562         5.428832         2.580453
 H        -2.044024         4.853913         0.369043
 H        -4.085865         2.730171         1.188884
 H        -2.676804         1.290715        -0.709727
 H        -2.349972         2.854081        -1.315901
 H        -0.253633         2.565626         0.156657
 H        -0.611361         0.320145         1.859346
 H        -1.870257         0.118913         0.850811
 H         0.290250         0.673149        -1.153061
 H        -1.934475         2.687744         2.675390
