19
Iteration:  4894
 O        -3.666617         4.507527         1.895532
 C        -2.336484         4.084964         1.512529
 C        -2.554660         3.265460         0.235564
 C        -1.389136         2.518651        -0.392504
 C        -0.940341         1.969400         0.986623
 C        -0.713392         0.522933         1.296207
 C        -0.456018        -0.486307         0.286549
 O        -0.305881        -0.449242        -0.924826
 C        -2.189968         2.582301         1.655929
 H        -3.702851         4.591753         2.840667
 H        -1.571940         4.944442         1.667362
 H        -3.555916         3.235544        -0.171491
 H        -1.652570         1.758127        -1.080396
 H        -0.692437         3.327504        -0.704316
 H         0.145517         2.479920         1.115113
 H         0.037263         0.428736         2.071816
 H        -1.585000        -0.061987         1.795552
 H        -0.425837        -1.588749         0.764975
 H        -2.821784         2.042853         2.401261
