19
Iteration:  2151
 O        -3.661251         4.668553         0.950508
 C        -3.390604         3.281404         1.119179
 C        -2.312519         3.013214         2.103988
 C        -2.140562         1.453934         2.317849
 C        -1.792726         1.291614         0.831410
 C        -0.213615         1.165213         0.708133
 C         0.425548         0.874987        -0.605461
 O         0.464998        -0.222695        -1.100889
 C        -2.095132         2.824118         0.583922
 H        -3.836202         4.663009         0.006395
 H        -4.291344         2.550451         1.051695
 H        -1.919384         3.857166         2.641672
 H        -1.512817         1.167340         3.070431
 H        -3.183944         1.091582         2.565229
 H        -2.340519         0.714925         0.079546
 H         0.134402         2.172343         1.000319
 H         0.251226         0.309369         1.431569
 H         0.930950         1.686983        -1.147635
 H        -1.183061         3.381503         0.183298
