19
Iteration:  2484
 O        -3.936590         4.260435         0.676048
 C        -3.286548         3.035355         0.960308
 C        -2.231128         3.222576         1.943188
 C        -1.819897         1.827495         2.465447
 C        -1.667632         1.316994         1.038631
 C        -0.357058         0.552621         0.924408
 C         0.340089         0.307340        -0.371027
 O         0.257908         1.136839        -1.241334
 C        -1.803435         2.738661         0.549363
 H        -4.425936         4.167930        -0.143315
 H        -4.077800         2.144600         1.126881
 H        -2.195710         4.162650         2.409832
 H        -0.955246         1.794679         3.063244
 H        -2.623155         1.354597         3.118977
 H        -2.498832         0.565926         0.636070
 H         0.427074         1.040534         1.406161
 H        -0.492173        -0.501842         1.240816
 H         0.775223        -0.671423        -0.404596
 H        -1.496143         3.200352        -0.363308
