19
Iteration:   525
 O        -3.395208         4.891554         1.678354
 C        -2.882413         3.882362         0.819149
 C        -3.172701         2.597501         1.595517
 C        -2.957073         1.537580         0.430728
 C        -1.371953         1.936367         0.414853
 C        -0.273895         0.924646         1.066057
 C         0.210958        -0.301258         0.220695
 O         0.754822        -0.211240        -0.887003
 C        -1.743503         3.063676         1.387886
 H        -2.659438         5.443580         2.071079
 H        -3.075559         4.051865        -0.310115
 H        -3.917201         2.740791         2.389391
 H        -3.250567         0.475775         0.637669
 H        -3.211387         1.793493        -0.573188
 H        -0.993334         2.054225        -0.687668
 H         0.646474         1.509188         0.986114
 H        -0.425870         0.664286         2.072283
 H         0.145589        -1.291739         0.733882
 H        -1.037562         3.572804         2.009912
