19
Iteration:   235
 O        -3.393944         4.793487         1.800502
 C        -2.931440         3.836525         0.887427
 C        -3.122855         2.456471         1.209444
 C        -2.473769         1.768463         0.053767
 C        -1.091803         2.174784         0.348187
 C        -0.350186         1.053450         1.124294
 C         0.417883         0.014834         0.268193
 O        -0.019581        -0.729670        -0.585067
 C        -1.685935         3.096988         1.456954
 H        -3.485857         4.337665         2.690389
 H        -2.889051         4.348505        -0.136319
 H        -3.950433         2.109686         1.795824
 H        -2.629972         0.683922         0.091201
 H        -2.903584         2.098959        -0.829274
 H        -0.345943         2.593072        -0.408036
 H         0.281083         1.595469         1.787808
 H        -1.088259         0.541711         1.710721
 H         1.495250         0.045175         0.468834
 H        -1.339523         3.382135         2.416782
