19
Iteration:  3323
 O        -3.305277         4.893567         1.123920
 C        -3.048560         3.483565         0.978095
 C        -2.612513         2.827227         2.116091
 C        -2.640889         1.281468         1.967389
 C        -1.549837         1.389475         0.751713
 C        -0.146300         0.833124         0.931880
 C         0.471703         0.507037        -0.434771
 O        -0.205492         0.086199        -1.368025
 C        -1.647674         2.982149         0.831586
 H        -3.054774         5.377540         0.353532
 H        -3.912322         3.084384         0.326070
 H        -2.432063         3.269469         3.104933
 H        -2.212159         0.869788         2.829034
 H        -3.713827         0.868067         1.667518
 H        -1.902258         1.030889        -0.210200
 H         0.607611         1.462841         1.471767
 H        -0.218886        -0.075042         1.456738
 H         1.605281         0.719180        -0.400225
 H        -0.842351         3.667521         0.782497
