19
Iteration:  2966charge 0 multiplicity 1
 O        -3.715790         4.830975         1.070402
 C        -3.400251         3.427478         1.105846
 C        -2.367055         3.109148         2.121638
 C        -2.211428         1.525295         2.392779
 C        -1.845935         1.375786         0.799706
 C        -0.497667         0.699966         0.564217
 C         0.033234         0.274564        -0.842259
 O         1.231733         0.157753        -1.050879
 C        -1.969773         2.963083         0.691674
 H        -3.683531         5.071176         0.091517
 H        -4.381988         2.842430         1.157482
 H        -2.080652         3.865407         2.960538
 H        -1.400593         1.333593         3.054578
 H        -3.144536         1.069681         2.670215
 H        -2.587275         0.686955         0.375915
 H         0.334536         1.299770         0.976166
 H        -0.529110        -0.454079         1.083846
 H        -0.748478        -0.092004        -1.586143
 H        -1.224862         3.660124         0.087574
