19
Iteration:  4577
 O        -2.908908         4.973375         2.068977
 C        -2.424848         4.022628         1.210709
 C        -3.221285         2.760493         0.737910
 C        -2.318800         2.111486        -0.477583
 C        -1.209903         1.914804         0.618071
 C        -1.296771         0.428699         1.036805
 C        -0.325323        -0.357805        -0.115653
 O         0.866934        -0.170018        -0.181272
 C        -2.044917         2.630196         1.662899
 H        -2.214470         5.445550         2.494425
 H        -1.844343         4.511118         0.498557
 H        -4.320724         2.623615         0.831442
 H        -2.796330         1.167974        -0.782659
 H        -2.098426         2.736496        -1.339601
 H        -0.126695         2.203281         0.313207
 H        -0.872426         0.343337         2.087662
 H        -2.310090        -0.004758         1.026610
 H        -0.854546        -0.935538        -0.888095
 H        -2.079039         2.523621         2.719825
