19
Iteration:    82
 O        -3.513361         4.784311         1.547438
 C        -2.563995         3.927210         0.958953
 C        -3.172913         2.583329         0.975468
 C        -2.399725         1.629652         0.042603
 C        -1.064526         2.098360         0.802815
 C        -0.096954         0.942523         1.240022
 C         0.314431         0.235685        -0.064686
 O        -0.175477        -0.705127        -0.616107
 C        -1.977171         2.861821         1.839882
 H        -3.060994         5.364352         2.197856
 H        -1.899347         4.187507         0.065446
 H        -4.273615         2.489958         1.263463
 H        -2.465110         0.452158         0.137086
 H        -2.633271         1.972162        -1.082630
 H        -0.451693         2.759369         0.217766
 H         0.769473         1.329155         1.934575
 H        -0.860190         0.382905         1.867485
 H         0.717907         1.020652        -0.687593
 H        -1.633061         2.999047         2.860150
