19
Iteration:  4202
 O        -3.560512         4.658057         1.858165
 C        -2.612749         3.914440         1.081394
 C        -2.975312         2.451411         1.058132
 C        -2.216848         1.874313        -0.201183
 C        -0.909704         2.285641         0.589757
 C        -0.163559         0.969998         1.090899
 C         0.125229         0.140026        -0.094965
 O        -0.553487        -0.821773        -0.517711
 C        -1.707533         2.951099         1.767297
 H        -3.111922         5.424208         2.329476
 H        -2.368577         4.441510         0.154726
 H        -3.898947         2.203444         1.512692
 H        -2.260310         0.729540        -0.424999
 H        -2.474662         2.489964        -1.059655
 H        -0.267914         2.935427         0.094044
 H         0.659484         1.268524         1.778696
 H        -0.795166         0.392465         1.826499
 H         1.036871         0.503990        -0.695977
 H        -1.522543         2.749538         2.766389
