19
Iteration:  1064charge 0 multiplicity 1
 O        -3.572212         4.798580         1.765603
 C        -3.215895         3.591109         1.059045
 C        -2.816237         2.476518         1.784144
 C        -2.458134         1.289379         0.815670
 C        -1.322517         2.109957         0.206877
 C         0.036102         1.569078         0.521252
 C         0.454367         0.223225        -0.301032
 O        -0.030439        -0.909929        -0.241743
 C        -1.695289         3.313930         1.050379
 H        -3.672049         5.421452         1.027866
 H        -3.868648         3.314477         0.261205
 H        -3.079068         2.403397         2.818299
 H        -2.093139         0.295238         1.283419
 H        -3.356131         1.004612         0.170528
 H        -1.453018         2.079199        -0.929242
 H         0.802977         2.336199         0.512000
 H        -0.047476         1.263951         1.583833
 H         1.221844         0.365179        -1.012866
 H        -0.937019         3.987274         1.502523
