19
Iteration:  4743charge 0 multiplicity 1
 O        -2.985441         4.910843         2.024433
 C        -2.187512         3.967380         1.288976
 C        -3.095067         3.099929         0.429667
 C        -2.178358         2.147045        -0.483929
 C        -1.331969         1.794341         0.809362
 C        -1.188725         0.201771         1.087670
 C         0.062038        -0.263885         0.447831
 O         0.422682        -0.094336        -0.759999
 C        -2.371264         2.587289         1.722099
 H        -2.644536         5.083893         2.908203
 H        -1.242155         4.315447         0.908578
 H        -4.164751         3.206743         0.408452
 H        -2.540580         1.284730        -0.990250
 H        -1.591537         2.763993        -1.232724
 H        -0.315145         2.250866         0.773077
 H        -1.171969        -0.072974         2.172141
 H        -2.031093        -0.290329         0.640359
 H         0.757802        -0.802061         1.025367
 H        -2.872147         2.387181         2.752112
