19
Iteration:  3834charge 0 multiplicity 1
 O        -3.161379         4.985418         1.839651
 C        -2.893720         3.935318         0.945473
 C        -3.041460         2.552621         1.598328
 C        -3.048550         1.526395         0.556047
 C        -1.541150         1.873414         0.299866
 C        -0.512784         0.864406         0.853395
 C        -0.104608        -0.137109        -0.262982
 O         1.120882        -0.412931        -0.529148
 C        -1.649399         3.090838         1.369761
 H        -2.633595         5.690130         1.465427
 H        -3.149034         4.046755        -0.070120
 H        -3.612640         2.491915         2.590140
 H        -3.242787         0.569728         0.826110
 H        -3.831450         1.777791        -0.165520
 H        -1.246133         2.391100        -0.722151
 H         0.452155         1.309659         1.287631
 H        -1.134499         0.448823         1.679185
 H        -0.953092        -0.210898        -0.968121
 H        -0.787372         3.436177         2.017787
