19
Iteration:  4157
 O        -3.382302         4.825387         2.041643
 C        -2.768451         4.026561         1.031866
 C        -3.099691         2.573161         0.965613
 C        -2.479674         1.679920        -0.084878
 C        -1.011665         2.097704         0.512200
 C        -0.192102         0.907065         1.184833
 C         0.342031        -0.039458         0.067405
 O        -0.320055        -0.651416        -0.745637
 C        -1.809922         2.973218         1.582268
 H        -2.783303         5.492609         2.466162
 H        -2.356608         4.671412         0.288279
 H        -3.986543         2.242748         1.535610
 H        -2.734631         0.553600         0.067471
 H        -2.552325         1.962023        -1.160428
 H        -0.442840         2.647780        -0.150375
 H         0.784183         1.189008         1.688394
 H        -0.686867         0.372635         2.054976
 H         1.488747         0.005946        -0.025244
 H        -1.606591         3.034760         2.604176
