19
Iteration:  1164charge 0 multiplicity 1
 O        -3.725350         4.748580         1.428482
 C        -3.115843         3.531858         0.922215
 C        -2.933903         2.467991         1.889241
 C        -2.285908         1.176466         1.108987
 C        -1.150599         2.139206         0.471328
 C         0.357805         1.523545         0.489289
 C         0.316826         0.268408        -0.553198
 O        -0.359820        -0.684718        -0.344432
 C        -1.711793         3.235636         1.388087
 H        -3.467074         5.407962         0.773786
 H        -3.402441         3.331180        -0.114593
 H        -3.475922         2.518885         2.939600
 H        -1.862582         0.375813         1.719966
 H        -2.983313         0.718016         0.283962
 H        -1.184043         2.438421        -0.590577
 H         1.054378         2.221560         0.105938
 H         0.695832         1.136022         1.498694
 H         1.212162         0.251957        -1.310835
 H        -1.298319         4.031710         1.986156
