19
Iteration:  1414charge 0 multiplicity 1
 O        -3.737087         4.580544         1.594508
 C        -3.130720         3.531311         1.010740
 C        -2.512019         2.576855         1.953171
 C        -2.324629         1.238843         1.208782
 C        -1.414906         1.943319         0.267060
 C         0.202373         1.546638         0.308547
 C         0.067338         0.053608         0.301887
 O        -0.091278        -0.433536        -0.772462
 C        -1.569816         3.355968         0.871499
 H        -3.913992         5.294759         0.928414
 H        -3.758485         3.150534         0.123925
 H        -2.868641         2.669468         2.934969
 H        -1.997832         0.438319         1.804607
 H        -3.281111         0.825276         0.836086
 H        -1.705230         2.203235        -0.798213
 H         0.796437         2.163830        -0.443338
 H         0.591755         1.884423         1.280639
 H         0.122266        -0.510301         1.260803
 H        -0.878622         4.142894         1.071517
