19
Iteration:   460
 O        -3.331783         4.783061         1.735716
 C        -2.860203         3.785566         0.880553
 C        -3.161009         2.480894         1.325586
 C        -2.696080         1.426767         0.338585
 C        -1.224221         1.983063         0.397753
 C        -0.240212         1.146429         1.154166
 C         0.189877        -0.117095         0.314075
 O         0.281737        -0.219958        -0.885448
 C        -1.650374         3.070439         1.442312
 H        -3.350733         5.627580         1.310215
 H        -2.771875         4.030310        -0.202233
 H        -3.974761         2.475256         2.013816
 H        -2.799561         0.341740         0.680540
 H        -3.147658         1.391453        -0.687611
 H        -0.782092         2.471791        -0.541056
 H         0.720621         1.609903         1.522516
 H        -0.779495         0.808805         1.988257
 H         0.327382        -1.007074         0.990441
 H        -1.252252         3.514093         2.294635
