19
Iteration:  4077
 O        -3.152497         5.074773         1.873003
 C        -2.701593         4.029609         0.950336
 C        -3.258984         2.536436         1.239200
 C        -2.816778         1.578837         0.165266
 C        -1.258111         1.879396         0.486779
 C        -0.436974         0.724740         1.169583
 C         0.269974        -0.271303         0.167295
 O         0.328724        -0.183035        -1.011041
 C        -1.793866         2.915263         1.580743
 H        -2.375442         5.646682         2.105299
 H        -2.638775         4.247608        -0.098676
 H        -3.979874         2.305051         2.005884
 H        -3.042866         0.549960         0.363633
 H        -3.182729         1.910925        -0.923388
 H        -0.690765         2.255972        -0.296869
 H         0.430459         1.209479         1.773706
 H        -1.072540         0.259053         1.996102
 H         0.818162        -1.040082         0.738098
 H        -1.448161         3.267562         2.638177
