19
Iteration:  1976charge 0 multiplicity 1
 O        -3.637821         4.728647         0.985923
 C        -3.311182         3.369748         0.934335
 C        -2.445186         3.045659         2.107634
 C        -2.386473         1.436446         2.433082
 C        -1.668299         1.405877         0.898875
 C        -0.180383         0.988655         0.766810
 C         0.031124         0.122532        -0.496379
 O         0.839242         0.306758        -1.384341
 C        -1.861261         2.899796         0.691160
 H        -3.870915         5.048771         0.079972
 H        -4.172641         2.817912         0.674079
 H        -2.346167         3.869844         2.850228
 H        -1.788253         1.168112         3.231017
 H        -3.443199         0.920728         2.464993
 H        -2.441369         0.977409         0.120830
 H         0.374660         1.834960         0.909659
 H        -0.064737         0.325947         1.569705
 H        -0.678863        -0.818544        -0.592420
 H        -1.232382         3.667340         0.216879
