19
Iteration:  1242
 O        -3.661390         4.750169         1.570918
 C        -3.130939         3.608710         0.920189
 C        -2.758162         2.506164         1.920863
 C        -2.471555         1.185051         1.132052
 C        -1.357358         1.950440         0.358288
 C         0.150502         1.484504         0.636399
 C         0.460575         0.346319        -0.360607
 O        -0.177334        -0.667565        -0.455139
 C        -1.699953         3.231317         0.994511
 H        -3.137608         5.492188         1.284830
 H        -3.743701         3.345898         0.083358
 H        -3.060992         2.614892         2.979002
 H        -2.104438         0.318426         1.613012
 H        -3.272306         0.869159         0.368234
 H        -1.341505         2.106070        -0.731328
 H         0.853770         2.265414         0.594070
 H         0.077139         1.012700         1.638042
 H         1.370566         0.586778        -0.991710
 H        -0.886264         3.887180         1.312393
