19
Iteration:  3938
 O        -2.880230         5.115702         1.509860
 C        -2.566929         3.901674         0.925740
 C        -3.401261         2.648592         1.359236
 C        -3.072219         1.350032         0.709514
 C        -1.540599         1.654469         0.709710
 C        -0.480818         0.627417         0.959332
 C        -0.032705        -0.121766        -0.234627
 O         0.937227         0.200448        -0.850466
 C        -1.881826         2.869594         1.670937
 H        -2.150408         5.797074         1.528101
 H        -2.288059         4.051591        -0.173831
 H        -4.220345         2.785020         1.993421
 H        -3.390078         0.587539         1.516759
 H        -3.422846         1.194666        -0.284650
 H        -1.538190         2.074465        -0.385409
 H         0.408345         1.086592         1.296913
 H        -0.879736        -0.051123         1.703386
 H        -0.616309        -1.105259        -0.427963
 H        -1.387628         2.971537         2.691584
