19
Iteration:   485
 O        -3.399842         5.016613         1.735118
 C        -2.945782         3.922461         0.931320
 C        -3.139677         2.452799         1.447637
 C        -2.623935         1.422429         0.343064
 C        -1.238246         2.013905         0.381926
 C        -0.354570         0.994583         1.010117
 C         0.150455        -0.247786         0.267872
 O         0.547851        -0.282157        -0.888548
 C        -1.781378         3.026131         1.418981
 H        -3.046989         5.847964         1.419639
 H        -3.103420         4.033815        -0.102317
 H        -3.812630         2.267279         2.323486
 H        -2.484611         0.370626         0.789446
 H        -3.299863         1.148203        -0.526338
 H        -0.823318         2.544662        -0.457353
 H         0.689736         1.420632         1.252713
 H        -0.843460         0.683917         2.000923
 H         0.509237        -0.984061         1.014497
 H        -1.272385         3.493318         2.334521
