19
Iteration:  2818charge 0 multiplicity 1
 O        -3.677203         4.653607         0.981118
 C        -3.365477         3.288621         1.037892
 C        -2.512555         2.900431         2.152872
 C        -2.160787         1.452449         2.294380
 C        -1.612768         1.447163         0.806446
 C        -0.143924         1.187067         0.711198
 C         0.208239         0.791719        -0.705529
 O         0.532452        -0.329604        -1.042059
 C        -1.957574         3.025241         0.662817
 H        -3.950334         4.997108         0.097916
 H        -4.084385         2.558112         0.629634
 H        -2.486086         3.647669         3.051908
 H        -1.262845         1.225771         3.020456
 H        -2.757418         0.625501         2.652017
 H        -2.128036         0.857912         0.059861
 H         0.513628         1.968302         0.952921
 H         0.000034         0.176027         1.383503
 H        -0.158665         1.532144        -1.469790
 H        -1.153380         3.697701         0.263399
