19
Iteration:   738
 O        -3.166993         5.004537         1.667220
 C        -2.899918         3.801087         0.868185
 C        -3.294108         2.635021         1.612534
 C        -2.975122         1.378185         0.767863
 C        -1.501498         1.909577         0.454004
 C        -0.395872         0.969562         0.721779
 C         0.010543        -0.022132        -0.311059
 O         1.191445        -0.326774        -0.460742
 C        -1.811486         2.950109         1.397221
 H        -3.294020         5.783105         1.086140
 H        -2.989518         3.828471        -0.231235
 H        -3.955574         2.657906         2.542944
 H        -2.862061         0.557466         1.474042
 H        -3.697102         1.033007        -0.064393
 H        -1.371663         2.457519        -0.544434
 H         0.548510         1.481515         0.786622
 H        -0.565492         0.415953         1.610541
 H        -0.848859        -0.524580        -0.886173
 H        -1.230482         3.596354         2.022529
