19
Iteration:   322
 O        -3.529914         4.830684         1.684852
 C        -2.682926         3.905445         0.901044
 C        -3.254251         2.528892         1.009044
 C        -2.360774         1.482579         0.219265
 C        -1.025279         2.121850         0.675171
 C         0.056259         1.100748         1.112955
 C         0.368297         0.081930         0.119265
 O        -0.317312        -0.556582        -0.682792
 C        -1.905700         2.880227         1.698041
 H        -3.459154         5.679778         1.196347
 H        -2.392382         4.168736        -0.131549
 H        -4.157715         2.307496         1.519728
 H        -2.409244         0.431871         0.542690
 H        -2.518428         1.400574        -0.835062
 H        -0.658055         2.873242        -0.020485
 H         0.966985         1.525823         1.335287
 H        -0.216846         0.591597         2.018080
 H         1.452606         0.000810        -0.045861
 H        -1.748136         2.991401         2.789896
