19
Iteration:  1756charge 0 multiplicity 1
 O        -3.262754         4.596332         0.466909
 C        -3.119644         3.280245         0.932089
 C        -2.336809         3.073932         2.111133
 C        -2.278435         1.496821         2.468803
 C        -1.791950         1.137281         1.021910
 C        -0.391578         0.383590         0.968880
 C         0.366165         0.605401        -0.310541
 O        -0.082651         1.066755        -1.327024
 C        -1.810505         2.639617         0.679078
 H        -3.303179         4.659632        -0.514803
 H        -3.998209         2.642444         0.848912
 H        -1.882358         3.868898         2.770418
 H        -1.498991         1.521161         3.144061
 H        -3.181286         1.053450         2.997818
 H        -2.475915         0.509390         0.489960
 H         0.249403         0.542495         1.919600
 H        -0.721881        -0.709188         1.021771
 H         1.398926         0.253180        -0.365946
 H        -1.038720         3.274819         0.156758
