19
Iteration:   965charge 0 multiplicity 1
 O        -3.418688         4.810060         1.909043
 C        -3.132283         3.737569         0.973035
 C        -2.987355         2.410665         1.631388
 C        -2.572857         1.299132         0.583017
 C        -1.369638         2.164013         0.141652
 C        -0.082048         1.405209         0.393492
 C        -0.027068         0.192246        -0.296360
 O         0.551800        -0.833769         0.072106
 C        -1.750911         3.181708         1.200958
 H        -2.993467         5.656847         1.607261
 H        -3.800606         3.816166         0.092518
 H        -3.339266         2.272523         2.629499
 H        -2.058908         0.367141         1.020659
 H        -3.249733         0.935670        -0.187078
 H        -1.425740         2.788385        -0.799268
 H         0.582675         2.067868        -0.161246
 H         0.282353         1.347911         1.427359
 H        -0.347519         0.211874        -1.425872
 H        -1.031791         3.791999         1.822124
