19
Iteration:  3417
 O        -3.469551         4.885385         1.285264
 C        -3.059257         3.532757         0.996161
 C        -2.764736         2.777296         2.171648
 C        -2.589228         1.297602         1.660794
 C        -1.410060         1.659960         0.640128
 C         0.055791         1.144306         0.764086
 C         0.450236         0.089325        -0.369568
 O        -0.239555        -0.186841        -1.366901
 C        -1.611351         3.104629         1.133704
 H        -3.367324         5.436377         0.443188
 H        -3.747232         3.118783         0.272910
 H        -3.108515         3.247324         3.057784
 H        -2.210550         0.670228         2.502596
 H        -3.388294         0.869303         1.134371
 H        -1.702716         1.325421        -0.387267
 H         0.620857         2.083384         0.651787
 H         0.334407         0.920874         1.896621
 H         1.529365        -0.330879        -0.161769
 H        -0.812452         3.801113         1.120706
