19
Iteration:  1897charge 0 multiplicity 1
 O        -3.476568         4.678678         0.673902
 C        -3.189541         3.231793         0.846373
 C        -2.320531         3.027709         2.090756
 C        -2.351832         1.523043         2.444888
 C        -1.729969         1.207847         1.028609
 C        -0.262933         0.606821         0.965515
 C         0.134553         0.264163        -0.383958
 O         0.275574         0.990766        -1.360234
 C        -1.761714         2.731172         0.674280
 H        -2.999393         4.897939        -0.159738
 H        -4.128565         2.722378         0.571536
 H        -2.061499         3.871754         2.738593
 H        -1.745799         1.239763         3.307078
 H        -3.393950         1.226737         2.811240
 H        -2.505884         0.683695         0.340178
 H         0.494706         1.182709         1.406781
 H        -0.328986        -0.304076         1.534124
 H         0.297544        -0.809948        -0.466848
 H        -0.952165         3.094443         0.068587
