19
Iteration:  4481charge 0 multiplicity 1
 O        -3.043433         5.001488         2.025601
 C        -2.438705         4.008090         1.264908
 C        -3.250288         2.962182         0.573944
 C        -2.437577         2.140530        -0.401037
 C        -1.350691         1.937110         0.772303
 C        -0.668859         0.578367         0.975234
 C        -0.152554        -0.062060        -0.278778
 O         0.749215        -0.826710        -0.195176
 C        -2.298901         2.629762         1.799385
 H        -2.543153         5.203724         2.812311
 H        -1.507219         4.429269         0.705889
 H        -4.360226         3.209759         0.533186
 H        -2.922520         1.182007        -0.541364
 H        -2.073811         2.671607        -1.346688
 H        -0.485487         2.621213         0.626715
 H         0.231411         0.620403         1.689156
 H        -1.492661        -0.020844         1.378106
 H        -0.743554         0.116512        -1.184386
 H        -2.526681         2.414313         2.806818
