19
Iteration:  4635
 O        -3.093263         4.860021         2.090623
 C        -2.318362         4.136342         1.231702
 C        -3.098848         3.025204         0.671765
 C        -2.443442         2.127905        -0.433769
 C        -1.254803         1.765782         0.552525
 C        -1.275966         0.290198         0.889230
 C        -0.238442        -0.480375         0.141560
 O         0.799117        -0.048628        -0.257509
 C        -1.849672         2.692922         1.606695
 H        -2.554030         5.250743         2.840837
 H        -1.561351         4.708475         0.729663
 H        -4.150711         2.986409         0.954959
 H        -3.173405         1.428989        -0.724424
 H        -2.145870         2.710272        -1.284595
 H        -0.125731         1.830267         0.118656
 H        -1.143653         0.166144         2.024957
 H        -2.221096        -0.227443         0.672701
 H        -0.678897        -1.435190        -0.055715
 H        -2.076861         2.502717         2.711124
