19
Iteration:  1878
 O        -3.373213         4.574603         0.586937
 C        -3.063308         3.237818         0.776056
 C        -2.314757         2.985918         2.078716
 C        -2.285677         1.559388         2.526525
 C        -1.814166         1.161134         1.076707
 C        -0.444246         0.545802         1.059664
 C         0.167038         0.291208        -0.475068
 O         0.157172         1.176400        -1.310255
 C        -1.725803         2.714478         0.696378
 H        -3.237676         4.806100        -0.345119
 H        -3.907983         2.646006         0.605981
 H        -2.148344         3.924250         2.562485
 H        -1.644235         1.350925         3.289070
 H        -3.186317         1.018525         2.748642
 H        -2.525659         0.403169         0.573574
 H         0.263026         1.360711         1.335605
 H        -0.375807        -0.274983         1.767221
 H         0.593081        -0.708820        -0.853007
 H        -0.927716         3.138404         0.190044
