19
Iteration:  2431
 O        -3.760032         4.347307         0.598751
 C        -3.365282         3.134932         1.049688
 C        -2.255585         3.196778         2.052863
 C        -1.961659         1.815923         2.598731
 C        -1.769047         1.204095         1.172176
 C        -0.252618         0.679256         0.959290
 C         0.409600         0.397627        -0.445940
 O         0.352974         1.077717        -1.465905
 C        -2.130416         2.490680         0.496630
 H        -3.892195         4.265789        -0.349902
 H        -4.242969         2.478207         1.287409
 H        -1.804159         4.094517         2.335290
 H        -1.041055         1.773734         3.257285
 H        -2.817057         1.480045         3.101935
 H        -2.270882         0.289567         0.836386
 H         0.547864         1.392988         1.319890
 H        -0.021501        -0.307008         1.451668
 H         1.188696        -0.503983        -0.465467
 H        -1.570153         2.827811        -0.338224
