19
Iteration:    60charge 0 multiplicity 1
 O        -3.556597         4.841205         1.571265
 C        -2.689623         3.931620         1.098111
 C        -3.057186         2.523696         0.970047
 C        -2.236622         1.707025         0.076119
 C        -1.001817         2.086240         0.845763
 C        -0.285557         0.854434         1.164241
 C         0.163131         0.342884        -0.188433
 O        -0.122671        -0.758828        -0.551888
 C        -1.879845         2.927635         1.796106
 H        -3.385010         5.622904         0.984054
 H        -2.155762         4.213566         0.143605
 H        -4.060600         2.132376         1.332917
 H        -2.496436         0.586793         0.363322
 H        -2.274447         1.694398        -1.113110
 H        -0.267471         2.664530         0.308469
 H         0.736998         1.124633         1.678853
 H        -0.923854         0.095906         1.707831
 H         1.061855         0.873517        -0.516999
 H        -1.859323         2.766471         2.881526
