19
Iteration:  4952
 O        -3.624400         4.404724         1.954903
 C        -2.457848         4.056580         1.313961
 C        -2.650521         2.980543         0.227411
 C        -1.180385         2.770385        -0.338862
 C        -0.744167         2.087113         1.080136
 C        -0.723495         0.517988         1.453947
 C        -0.696401        -0.500348         0.253114
 O        -0.419641        -0.399759        -0.951379
 C        -2.123566         2.608444         1.562098
 H        -3.400600         4.326555         2.940151
 H        -1.791753         4.829797         0.995954
 H        -3.618200         2.686323        -0.249661
 H        -0.953870         2.039899        -1.094999
 H        -0.697382         3.653920        -0.672210
 H         0.227658         2.539513         1.393355
 H         0.261535         0.341158         1.916733
 H        -1.471303         0.212868         2.190486
 H        -0.682079        -1.519205         0.776312
 H        -2.607023         2.139364         2.330151
