19
Iteration:  1768
 O        -3.238209         4.544122         0.434576
 C        -3.146184         3.193043         0.849740
 C        -2.229733         3.021866         2.106496
 C        -2.235642         1.578386         2.541291
 C        -1.838427         1.124790         1.038224
 C        -0.525894         0.353333         0.978729
 C         0.350875         0.661602        -0.294154
 O        -0.116469         1.178854        -1.332837
 C        -1.733927         2.638819         0.759650
 H        -3.076960         4.434420        -0.532121
 H        -3.986561         2.572244         0.596406
 H        -2.071244         4.019482         2.618079
 H        -1.410541         1.259260         3.091747
 H        -3.135496         1.061342         2.949484
 H        -2.573298         0.694798         0.449039
 H         0.169270         0.618505         1.859922
 H        -0.609706        -0.782542         0.996769
 H         1.351184         0.236692        -0.226260
 H        -1.007237         3.088224        -0.023377
