19
Iteration:  1787
 O        -3.239305         4.441397         0.381779
 C        -2.982320         3.148822         0.797546
 C        -2.231042         3.021012         2.064600
 C        -2.209707         1.536622         2.586132
 C        -1.839388         1.131775         1.138133
 C        -0.580461         0.365819         0.904078
 C         0.182031         0.678261        -0.278616
 O        -0.120342         1.336534        -1.274936
 C        -1.689451         2.587411         0.656010
 H        -2.817090         4.629579        -0.461640
 H        -3.769202         2.371933         0.760134
 H        -1.947442         3.891265         2.698051
 H        -1.536379         1.547571         3.422991
 H        -3.209126         1.203082         3.061222
 H        -2.788119         0.538838         0.742854
 H         0.214925         0.636166         1.674159
 H        -0.929818        -0.675143         1.087052
 H         1.258433         0.341415        -0.085797
 H        -0.850296         3.062247         0.135353
