19
Iteration:   423
 O        -3.452893         4.829440         1.716977
 C        -2.896196         3.807902         0.861255
 C        -3.155722         2.471532         1.217903
 C        -2.569000         1.382004         0.222200
 C        -1.073303         1.908473         0.495433
 C        -0.039124         1.029015         1.225517
 C         0.305202        -0.138433         0.319349
 O        -0.110096        -0.088869        -0.797297
 C        -1.665412         3.096088         1.422811
 H        -2.765592         5.493037         1.517403
 H        -2.908205         4.201977        -0.201471
 H        -4.059246         2.318118         1.888013
 H        -2.732769         0.444695         0.632511
 H        -2.991379         1.443766        -0.752210
 H        -0.684592         2.197145        -0.492952
 H         0.710379         1.679319         1.555224
 H        -0.580775         0.736863         2.149281
 H         1.091774        -0.905986         0.569625
 H        -1.285863         3.453290         2.457634
