19
Iteration:   425
 O        -3.442234         4.814968         1.720248
 C        -2.892378         3.809167         0.863486
 C        -3.157979         2.483140         1.225825
 C        -2.582628         1.373370         0.219167
 C        -1.090129         1.896555         0.500485
 C        -0.053471         1.015679         1.225004
 C         0.310243        -0.150876         0.327120
 O        -0.093700        -0.076439        -0.796881
 C        -1.662941         3.112479         1.417305
 H        -2.837812         5.524086         1.507312
 H        -2.846913         4.213766        -0.212337
 H        -3.998029         2.325962         1.910296
 H        -2.774497         0.393803         0.589376
 H        -2.994005         1.517349        -0.768973
 H        -0.745644         2.235368        -0.534508
 H         0.775668         1.704859         1.478279
 H        -0.513717         0.807716         2.121860
 H         1.066709        -0.901412         0.626355
 H        -1.341732         3.476511         2.380932
