19
Iteration:  1113charge 0 multiplicity 1
 O        -3.713890         4.675075         1.595179
 C        -3.041455         3.613390         0.883766
 C        -2.739921         2.450104         1.794999
 C        -2.377654         1.146397         1.001903
 C        -1.302795         2.016116         0.301548
 C         0.151809         1.497678         0.568455
 C         0.378971         0.387273        -0.362934
 O        -0.326342        -0.609681        -0.244714
 C        -1.615290         3.223912         1.160144
 H        -3.230811         5.523185         1.420717
 H        -3.468398         3.506887        -0.176914
 H        -3.240989         2.168145         2.751912
 H        -1.923474         0.446403         1.691456
 H        -3.151715         0.626717         0.489763
 H        -1.297739         2.116043        -0.860102
 H         0.951209         2.261192         0.310262
 H         0.217350         1.260490         1.641267
 H         0.903139         0.571759        -1.263492
 H        -0.910115         4.024578         1.444254
