19
Iteration:  4350charge 0 multiplicity 1
 O        -3.387406         4.642338         2.434863
 C        -2.707164         4.025458         1.230605
 C        -3.224362         2.788671         0.553197
 C        -2.216705         2.371656        -0.579655
 C        -1.029739         2.296071         0.425156
 C        -0.397128         0.919092         0.879569
 C         0.096318        -0.092754        -0.180726
 O         0.022484        -1.265894         0.100399
 C        -1.917127         2.849651         1.517982
 H        -2.660883         4.865708         3.056240
 H        -2.308629         4.835172         0.560729
 H        -4.228902         2.411766         0.693337
 H        -2.395539         1.434444        -0.995147
 H        -2.069078         2.965009        -1.507864
 H        -0.130918         2.801909         0.208507
 H         0.422968         1.128714         1.579516
 H        -1.056975         0.324307         1.478774
 H         0.605376         0.247640        -1.085508
 H        -1.924827         2.620049         2.548826
