19
Iteration:  2991
 O        -3.517592         4.774968         0.962253
 C        -3.364539         3.363615         1.140974
 C        -2.342435         3.080456         2.180239
 C        -2.220383         1.535497         2.343119
 C        -1.958750         1.372791         0.829988
 C        -0.515901         0.711053         0.683514
 C         0.008948         0.334088        -0.730624
 O         1.161242         0.337251        -1.132439
 C        -2.051560         2.841074         0.655179
 H        -3.376021         4.882038        -0.009290
 H        -4.321882         2.785965         1.002816
 H        -1.940283         3.870544         2.845334
 H        -1.368347         1.284825         2.871851
 H        -3.207987         1.111882         2.682225
 H        -2.633537         0.625032         0.349676
 H         0.373977         1.274326         1.180738
 H        -0.610804        -0.340537         1.119901
 H        -0.835299         0.114339        -1.425115
 H        -1.340090         3.343898         0.061979
