19
Iteration:  3339charge 0 multiplicity 1
 O        -3.352271         4.912278         1.164530
 C        -3.135249         3.552822         0.838859
 C        -2.626965         2.796832         2.181176
 C        -2.530297         1.307327         1.919886
 C        -1.581747         1.509178         0.790265
 C        -0.118735         0.868468         0.898754
 C         0.468455         0.454936        -0.452554
 O        -0.162926        -0.054587        -1.422697
 C        -1.659601         3.009928         1.010003
 H        -2.807042         5.443425         0.536425
 H        -3.805066         3.106116         0.169260
 H        -2.868803         3.330854         3.094549
 H        -2.134354         0.575848         2.721418
 H        -3.334285         0.799144         1.547849
 H        -1.959152         1.148175        -0.190373
 H         0.472759         1.474040         1.610922
 H        -0.190979        -0.195190         1.469615
 H         1.550904         0.455305        -0.573260
 H        -0.809468         3.745722         0.689316
