19
Iteration:  1908
 O        -3.479039         4.665195         0.699220
 C        -3.227574         3.322809         0.970502
 C        -2.410128         3.015157         2.088781
 C        -2.324573         1.542275         2.366822
 C        -1.689561         1.280428         0.941810
 C        -0.276893         0.646378         1.017540
 C         0.132432         0.209934        -0.390613
 O         0.344442         0.887599        -1.374491
 C        -1.797830         2.748411         0.679594
 H        -3.002205         4.900300        -0.141099
 H        -4.093268         2.622740         0.964802
 H        -2.049307         3.846768         2.673078
 H        -1.628242         1.359231         3.184571
 H        -3.298149         0.925886         2.389108
 H        -2.165526         0.455513         0.299390
 H         0.473897         1.297906         1.363716
 H        -0.311874        -0.259044         1.604286
 H         0.129905        -0.873070        -0.563464
 H        -1.096670         3.321155         0.106541
