19
Iteration:  1735
 O        -3.303544         4.750791         0.580489
 C        -3.241105         3.302061         0.934078
 C        -2.301749         2.995674         2.076125
 C        -2.291798         1.469702         2.431723
 C        -1.705222         1.173630         1.001319
 C        -0.331306         0.463274         0.988781
 C         0.431852         0.534580        -0.307109
 O        -0.050725         0.876003        -1.378760
 C        -1.847794         2.712395         0.695259
 H        -3.593566         4.735662        -0.334696
 H        -4.047787         2.667816         0.690260
 H        -2.160104         3.898884         2.716558
 H        -1.804595         1.176745         3.302267
 H        -3.303221         1.048632         2.497978
 H        -2.348522         0.585025         0.476065
 H         0.363699         1.004215         1.668028
 H        -0.540529        -0.491120         1.398216
 H         1.421791        -0.048764        -0.238142
 H        -1.199953         3.205011        -0.079836
