19
Iteration:  3813
 O        -3.271136         4.929746         1.912058
 C        -2.817467         3.972458         1.034070
 C        -3.119598         2.651339         1.654891
 C        -3.044559         1.515886         0.504639
 C        -1.527207         1.925987         0.242256
 C        -0.437218         0.988103         0.723700
 C        -0.077053        -0.092626        -0.278882
 O         1.082036        -0.582079        -0.423805
 C        -1.631648         3.068308         1.242641
 H        -2.668164         5.745352         1.866961
 H        -3.204320         4.128935         0.054936
 H        -3.571165         2.599791         2.714147
 H        -3.116610         0.563037         0.888871
 H        -3.598974         1.579782        -0.429142
 H        -1.250050         2.317413        -0.874475
 H         0.536613         1.506378         0.922671
 H        -0.718180         0.404820         1.589805
 H        -1.035505        -0.601451        -0.695505
 H        -0.784837         3.420049         1.899644
