19
Iteration:  1689charge 0 multiplicity 1
 O        -3.434390         4.707962         0.868529
 C        -3.199764         3.347313         0.828172
 C        -2.309897         2.943841         2.119642
 C        -2.357473         1.394250         2.282967
 C        -1.755143         1.270503         0.853232
 C        -0.252582         0.918962         0.989951
 C         0.383379         0.298729        -0.242686
 O         0.025997         0.504048        -1.421459
 C        -1.784239         2.902084         0.662634
 H        -3.331292         5.073868        -0.034770
 H        -4.061701         2.717830         0.649880
 H        -2.139111         3.722402         2.828599
 H        -1.792432         0.737352         2.923169
 H        -3.365732         0.875653         2.430062
 H        -2.242952         0.808301         0.059122
 H         0.323824         1.854589         1.223013
 H        -0.151167         0.111353         1.744206
 H         1.393095        -0.099115         0.140897
 H        -1.122070         3.507125         0.125933
