19
Iteration:  3605charge 0 multiplicity 1
 O        -3.308269         4.738120         1.957326
 C        -3.102946         3.709954         1.010296
 C        -2.747198         2.327360         1.711340
 C        -2.492110         1.161129         0.637090
 C        -1.370793         2.083743         0.151897
 C         0.104439         1.580276         0.467351
 C         0.342006         0.285466        -0.248857
 O        -0.404389        -0.721765        -0.154697
 C        -1.697634         3.237773         1.035981
 H        -2.761305         5.463080         1.699546
 H        -3.653685         3.737197         0.058227
 H        -2.992180         2.306192         2.776716
 H        -2.307579         0.256244         1.076663
 H        -3.346535         1.084646        -0.121084
 H        -1.599990         2.264340        -0.897792
 H         0.818662         2.332830         0.153031
 H         0.141224         1.438834         1.513015
 H         1.305618         0.206955        -0.888124
 H        -0.975718         3.587801         1.846034
