19
Iteration:   825charge 0 multiplicity 1
 O        -3.344623         4.824346         1.851869
 C        -3.077998         3.789387         0.988520
 C        -3.031625         2.505160         1.628623
 C        -2.808442         1.400943         0.607758
 C        -1.526102         2.092575         0.107164
 C        -0.278166         1.212945         0.727185
 C        -0.072337        -0.029455        -0.172548
 O         0.989389        -0.583488        -0.253647
 C        -1.708716         3.188494         1.066080
 H        -2.529611         5.378500         1.913595
 H        -3.437876         3.930978        -0.083946
 H        -3.346950         2.448206         2.712551
 H        -2.423305         0.539415         1.079224
 H        -3.562489         1.069353        -0.130715
 H        -1.376968         2.369577        -0.901611
 H         0.638997         1.841769         0.932756
 H        -0.643207         0.996470         1.768597
 H        -0.903269        -0.309306        -0.886467
 H        -0.993031         3.538416         1.820435
