19
Iteration:  4066
 O        -3.150858         5.045423         1.821368
 C        -2.770936         3.990974         0.958219
 C        -3.204501         2.639528         1.317738
 C        -2.813548         1.611771         0.173040
 C        -1.299055         1.889899         0.559239
 C        -0.412309         0.635416         1.145227
 C         0.244611        -0.323973         0.209586
 O         0.380542        -0.090338        -1.021935
 C        -1.787260         2.926516         1.511717
 H        -2.389796         5.597294         1.952073
 H        -2.799814         4.325010        -0.056767
 H        -4.077403         2.546585         1.911407
 H        -3.093126         0.655737         0.551456
 H        -3.192460         1.595126        -0.959206
 H        -0.724323         2.345836        -0.166803
 H         0.427089         1.155441         1.757589
 H        -0.914370        -0.120490         1.842499
 H         0.516054        -1.323237         0.564435
 H        -1.226845         3.101632         2.520756
