19
Iteration:  1303
 O        -3.458883         4.778069         1.744292
 C        -3.198695         3.616785         0.985045
 C        -2.688359         2.544447         1.847555
 C        -2.650704         1.192441         1.092970
 C        -1.500203         1.873409         0.129612
 C        -0.084399         1.519178         0.445780
 C         0.611937         0.264716        -0.044972
 O         0.020261        -0.674601        -0.502173
 C        -1.715647         3.216875         0.946803
 H        -3.602625         5.542765         1.183288
 H        -3.833730         3.466201         0.053163
 H        -2.984026         2.605707         2.931958
 H        -2.185140         0.333614         1.676655
 H        -3.639565         0.927473         0.727326
 H        -1.805955         2.086097        -0.957756
 H         0.481006         2.423809        -0.101596
 H         0.206828         1.602440         1.515289
 H         1.763964         0.356138         0.027168
 H        -1.002090         3.832039         1.459113
