19
Iteration:  1214charge 0 multiplicity 1
 O        -3.719539         4.609910         1.480829
 C        -3.009589         3.609802         0.857872
 C        -2.774176         2.503473         1.873831
 C        -2.434759         1.245434         1.184489
 C        -1.351160         2.040929         0.392221
 C         0.163612         1.520019         0.564639
 C         0.395939         0.335299        -0.380822
 O        -0.261666        -0.724791        -0.459750
 C        -1.610509         3.274007         1.253114
 H        -3.483250         5.442414         1.054069
 H        -3.381454         3.385113        -0.197484
 H        -3.140474         2.506972         2.879888
 H        -1.974696         0.465557         1.870980
 H        -3.140256         0.821556         0.545304
 H        -1.468125         2.347028        -0.663913
 H         0.987091         2.319655         0.366972
 H         0.034510         1.110006         1.540274
 H         1.290616         0.648122        -1.214031
 H        -0.927016         4.007742         1.759329
