19
Iteration:   582
 O        -3.045420         4.949344         1.679395
 C        -2.908597         3.807794         0.799261
 C        -3.256054         2.486620         1.404632
 C        -2.911471         1.321334         0.557933
 C        -1.408760         1.823733         0.515135
 C        -0.282071         0.955398         1.066194
 C        -0.054280        -0.093301         0.087630
 O         0.820008         0.030961        -0.754690
 C        -1.793519         3.025191         1.361015
 H        -2.888528         5.698803         1.111751
 H        -3.063326         3.963623        -0.301606
 H        -3.944128         2.374878         2.262163
 H        -3.003824         0.409363         1.270614
 H        -3.292976         0.908708        -0.392420
 H        -1.173647         2.072524        -0.639561
 H         0.590291         1.602032         1.216131
 H        -0.516397         0.501511         1.983332
 H        -0.724102        -0.964234         0.085401
 H        -1.294757         3.428116         2.321781
