19
Iteration:  3880
 O        -2.969447         5.083213         1.630102
 C        -2.806731         3.906796         0.929093
 C        -3.238295         2.609086         1.614789
 C        -3.058635         1.415814         0.563444
 C        -1.525076         1.816573         0.559192
 C        -0.591483         0.655652         0.979496
 C        -0.041235        -0.093717        -0.295153
 O         1.078381        -0.075695        -0.715727
 C        -1.746324         2.935699         1.502741
 H        -2.227900         5.642707         1.506695
 H        -2.946808         3.803599        -0.108147
 H        -3.987190         2.870034         2.462923
 H        -3.211806         0.471236         1.016840
 H        -3.580729         1.333298        -0.350594
 H        -1.273695         2.066282        -0.583947
 H         0.310681         1.199505         1.320065
 H        -1.005236         0.144683         1.848397
 H        -0.957356        -0.431502        -0.861531
 H        -1.055217         3.427107         2.094441
