19
Iteration:   349
 O        -3.669543         4.919547         1.489533
 C        -2.759551         3.908328         0.960845
 C        -3.066708         2.460766         1.181672
 C        -2.452536         1.497942         0.169203
 C        -1.072768         2.022160         0.680227
 C         0.091463         1.005708         1.097114
 C         0.496809        -0.008894         0.047988
 O        -0.361136        -0.427129        -0.668274
 C        -1.800892         2.962467         1.819851
 H        -3.097594         5.729848         1.601042
 H        -2.410269         4.127681        -0.089854
 H        -4.097733         2.208654         1.551908
 H        -2.600169         0.427273         0.211262
 H        -2.680618         1.846098        -0.879961
 H        -0.752735         2.797294        -0.098227
 H         1.009684         1.610204         1.483574
 H        -0.271190         0.396243         1.974244
 H         1.596304        -0.391029        -0.053531
 H        -1.786170         2.770719         2.891826
