19
Iteration:  1694
 O        -3.418552         4.697793         0.855818
 C        -3.184041         3.316027         0.854956
 C        -2.299564         2.982746         2.106581
 C        -2.354889         1.367121         2.282238
 C        -1.753016         1.274499         0.861989
 C        -0.305248         0.905943         0.974927
 C         0.369134         0.323888        -0.244151
 O         0.028300         0.548623        -1.410223
 C        -1.743765         2.834680         0.649135
 H        -3.385873         5.059819        -0.053962
 H        -4.077182         2.729580         0.525960
 H        -2.242601         3.777902         2.903683
 H        -1.794598         0.956640         3.196054
 H        -3.370264         1.030248         2.391523
 H        -2.411861         0.672108         0.106494
 H         0.208226         1.799883         1.314057
 H         0.007675         0.111693         1.679122
 H         1.324531        -0.103648         0.098593
 H        -1.087153         3.572389         0.050160
