19
Iteration:  4872
 O        -3.572480         4.693753         1.894001
 C        -2.389816         4.055988         1.416622
 C        -2.640783         3.161954         0.307989
 C        -1.431963         2.531792        -0.358618
 C        -0.990938         1.985968         1.091371
 C        -0.766600         0.419682         1.309030
 C        -0.281838        -0.621464         0.206651
 O        -0.256520        -0.368804        -0.964278
 C        -2.309507         2.578737         1.643282
 H        -3.270063         4.830595         2.841753
 H        -1.422516         4.707797         1.406758
 H        -3.637453         3.294656        -0.075011
 H        -1.755943         1.645210        -0.824763
 H        -0.682327         3.204393        -0.857450
 H        -0.063768         2.618269         1.498500
 H        -0.003417         0.341154         2.081165
 H        -1.672409        -0.048247         1.851042
 H         0.117069        -1.649366         0.578213
 H        -2.954581         2.088824         2.428675
