19
Iteration:  2163
 O        -3.648266         4.652715         0.857574
 C        -3.426764         3.291195         1.076706
 C        -2.293228         3.003172         2.165278
 C        -2.173761         1.462871         2.331883
 C        -1.691498         1.290643         0.827476
 C        -0.174471         1.180805         0.804507
 C         0.432691         0.910549        -0.605916
 O         0.356797        -0.188950        -1.170554
 C        -2.030648         2.748773         0.660616
 H        -3.795720         5.049412        -0.044119
 H        -4.350395         2.653511         0.963307
 H        -2.007163         3.787962         2.801982
 H        -1.469335         1.030245         2.958499
 H        -3.147897         0.888997         2.520322
 H        -2.167289         0.447720         0.364077
 H         0.252181         2.110814         1.206334
 H         0.159098         0.371817         1.625286
 H         0.839625         1.789025        -1.126298
 H        -1.681993         3.377247        -0.207333
