19
Iteration:  2653
 O        -3.605885         4.370567         0.455224
 C        -3.199664         3.088890         0.960712
 C        -2.165788         3.076856         2.087534
 C        -2.124699         1.539816         2.482139
 C        -1.667664         1.221486         1.050856
 C        -0.054944         0.867974         1.059825
 C         0.391194         0.935620        -0.390323
 O        -0.332337         0.552282        -1.300497
 C        -1.822784         2.755119         0.650386
 H        -3.868215         4.200436        -0.436013
 H        -4.074966         2.301885         0.905229
 H        -2.164945         3.882736         2.701968
 H        -1.160426         1.277624         3.161207
 H        -2.790244         0.921395         2.918945
 H        -2.172585         0.587425         0.260654
 H         0.394909         1.512669         1.697094
 H         0.089536        -0.209579         1.320741
 H         1.494607         1.166410        -0.573597
 H        -1.350507         3.371776        -0.078078
