19
Iteration:  1495
 O        -3.663472         4.725282         1.301935
 C        -3.120599         3.485537         0.892102
 C        -2.757394         2.694050         2.036145
 C        -2.388567         1.259777         1.646294
 C        -1.419617         1.761293         0.534872
 C         0.098171         1.457921         0.559699
 C         0.482312         0.209783        -0.207731
 O        -0.227647        -0.423249        -0.957861
 C        -1.622237         3.185090         1.033076
 H        -3.428353         5.381127         0.605426
 H        -3.701864         3.084519         0.101379
 H        -2.984963         3.078823         3.065011
 H        -1.963453         0.810832         2.510589
 H        -3.145825         0.659778         1.139253
 H        -1.710656         1.753050        -0.468263
 H         0.627699         2.289432         0.084587
 H         0.458864         1.241086         1.614286
 H         1.482546        -0.270485         0.082434
 H        -0.988532         4.074391         1.026531
