19
Iteration:   596charge 0 multiplicity 1
 O        -3.094504         4.870458         1.588030
 C        -2.881406         3.787868         0.777527
 C        -3.327958         2.618767         1.504985
 C        -2.931717         1.354281         0.565025
 C        -1.436372         1.771926         0.601196
 C        -0.204697         0.891805         1.161984
 C        -0.051564        -0.086676        -0.010217
 O         0.872837         0.033547        -0.786893
 C        -1.781492         2.991689         1.396080
 H        -3.029967         5.737260         1.115954
 H        -3.034794         3.952031        -0.244138
 H        -3.896568         2.711214         2.383740
 H        -3.227418         0.376894         0.994776
 H        -3.447809         1.579047        -0.443607
 H        -1.067814         2.078985        -0.431164
 H         0.715475         1.446743         1.017991
 H        -0.360715         0.554456         2.216599
 H        -0.913211        -0.798088        -0.191385
 H        -1.102615         3.533457         2.020090
