19
Iteration:   607charge 0 multiplicity 1
 O        -3.202381         4.996212         1.578232
 C        -2.846575         3.787254         0.711973
 C        -3.243053         2.546485         1.561381
 C        -2.996974         1.410869         0.663370
 C        -1.380554         1.746104         0.618271
 C        -0.264077         0.891930         1.130846
 C        -0.019742        -0.098294        -0.037967
 O         0.904535         0.001987        -0.825943
 C        -1.746811         2.946570         1.441960
 H        -2.957334         5.757404         1.028687
 H        -2.960863         3.888470        -0.316474
 H        -4.063944         2.631098         2.204362
 H        -3.203407         0.338565         0.776243
 H        -3.452273         1.573892        -0.414552
 H        -0.922403         2.079430        -0.415452
 H         0.508347         1.601600         1.407076
 H        -0.463158         0.239343         2.034910
 H        -0.881731        -0.763909        -0.311406
 H        -1.158637         3.507547         2.109629
