19
Iteration:   466
 O        -3.335712         4.834333         1.732568
 C        -2.863374         3.798796         0.914399
 C        -3.192054         2.424884         1.307531
 C        -2.700975         1.390772         0.378204
 C        -1.250533         2.078350         0.368499
 C        -0.257769         1.108671         1.074291
 C         0.218213        -0.159191         0.335364
 O         0.330320        -0.228428        -0.873234
 C        -1.663976         3.114551         1.444873
 H        -3.272572         5.688629         1.260569
 H        -2.750729         4.075137        -0.153040
 H        -3.930057         2.296071         2.135751
 H        -2.746553         0.407438         0.742850
 H        -3.039248         1.376969        -0.652265
 H        -0.851191         2.448030        -0.554726
 H         0.641404         1.478662         1.556247
 H        -0.863233         0.673284         1.987154
 H         0.212975        -1.144330         0.889266
 H        -1.106810         3.513700         2.369717
