19
Iteration:  3940
 O        -2.875239         5.122677         1.512347
 C        -2.579652         3.882558         0.923457
 C        -3.389448         2.658951         1.352617
 C        -3.065882         1.342381         0.703276
 C        -1.535612         1.660520         0.711436
 C        -0.475235         0.625504         0.950492
 C        -0.020976        -0.117915        -0.222894
 O         0.919361         0.201696        -0.851648
 C        -1.892048         2.869706         1.680888
 H        -2.142653         5.737413         1.496427
 H        -2.332166         4.067085        -0.183745
 H        -4.198238         2.889804         2.040980
 H        -3.409899         0.561443         1.521669
 H        -3.467348         1.116945        -0.346087
 H        -1.483072         2.095194        -0.333334
 H         0.454192         1.035094         1.343973
 H        -0.923693        -0.037569         1.685590
 H        -0.584143        -1.087918        -0.475266
 H        -1.402436         2.983087         2.694171
