19
Iteration:  1668charge 0 multiplicity 1
 O        -3.507233         4.794236         0.895785
 C        -3.277576         3.388282         1.030656
 C        -2.455216         2.956479         2.123564
 C        -2.367640         1.391798         2.146288
 C        -1.608781         1.377572         0.748680
 C        -0.164709         0.922034         0.943870
 C         0.501337         0.266645        -0.270578
 O        -0.000190         0.308159        -1.394712
 C        -1.786614         2.885819         0.684961
 H        -3.173968         5.066254         0.010610
 H        -4.079523         2.854724         0.589484
 H        -2.249955         3.549956         2.988521
 H        -1.924618         1.188011         3.060534
 H        -3.337859         0.829482         2.241403
 H        -2.127186         0.885649         0.009004
 H         0.387323         1.792174         1.289306
 H        -0.074002         0.106370         1.610484
 H         1.440487        -0.221841         0.124001
 H        -1.166781         3.652632         0.339951
