19
Iteration:   179charge 0 multiplicity 1
 O        -3.495454         4.770839         1.893995
 C        -2.835184         4.003303         0.966277
 C        -3.145639         2.557082         1.149584
 C        -2.690914         1.724742        -0.094510
 C        -1.092268         2.102999         0.398219
 C        -0.224462         0.972444         1.112096
 C         0.523929         0.006852         0.259003
 O         0.017382        -0.744738        -0.531098
 C        -1.726179         2.989266         1.412140
 H        -3.098794         5.636046         2.021425
 H        -2.895109         4.523230        -0.040827
 H        -3.925805         2.301972         1.958436
 H        -3.020979         0.637964        -0.002152
 H        -3.039066         2.031217        -1.029272
 H        -0.291201         2.686324        -0.208264
 H         0.474480         1.508132         1.711460
 H        -0.860952         0.389209         1.765683
 H         1.610453         0.036012         0.398358
 H        -1.349434         3.119024         2.405618
