19
Iteration:   272
 O        -3.338335         4.843321         1.836844
 C        -2.874665         3.935413         0.918508
 C        -3.104125         2.480842         1.065884
 C        -2.528914         1.577399        -0.003375
 C        -1.050264         2.009040         0.402037
 C        -0.153817         1.081747         1.221964
 C         0.501809         0.094392         0.208428
 O        -0.255655        -0.506510        -0.511844
 C        -1.794397         2.932111         1.464752
 H        -4.303739         4.667993         2.018326
 H        -2.505244         4.258730        -0.066964
 H        -3.952964         2.036759         1.651154
 H        -2.720869         0.536903         0.211526
 H        -2.854158         1.647051        -1.113930
 H        -0.455672         2.509228        -0.408142
 H         0.663793         1.809155         1.705336
 H        -0.595020         0.485234         2.097486
 H         1.572103         0.097294         0.004684
 H        -1.625114         2.817066         2.584190
