19
Iteration:  3719
 O        -3.465061         4.764196         2.003924
 C        -2.948218         3.832121         1.097702
 C        -2.943886         2.443721         1.605817
 C        -2.623261         1.508625         0.467733
 C        -1.315654         2.223267         0.087207
 C        -0.118119         1.342260         0.299478
 C        -0.220291         0.016328        -0.323918
 O         0.528345        -0.924442        -0.003853
 C        -1.585947         3.212368         1.336949
 H        -3.041967         5.620544         1.916836
 H        -3.237465         4.084210         0.025674
 H        -3.515511         2.252352         2.555310
 H        -2.513210         0.387403         0.818434
 H        -3.454862         1.507475        -0.301402
 H        -1.313941         2.752553        -0.937359
 H         0.760765         1.883450        -0.089263
 H         0.002520         1.269098         1.468647
 H        -1.072381        -0.103347        -1.093249
 H        -0.874964         3.527945         2.031824
