19
Iteration:  3985
 O        -2.942983         5.083046         1.472135
 C        -2.684332         3.816962         0.864320
 C        -3.276330         2.645067         1.468712
 C        -3.007930         1.378991         0.467323
 C        -1.452068         1.701541         0.728914
 C        -0.473084         0.562315         1.103903
 C        -0.105544        -0.155499        -0.104712
 O         0.724198         0.326460        -0.874581
 C        -1.671110         2.879450         1.671807
 H        -2.104811         5.525577         1.586877
 H        -2.562472         3.816502        -0.285013
 H        -4.034183         2.705502         2.330465
 H        -3.316992         0.305580         0.729667
 H        -3.184125         1.727354        -0.600475
 H        -1.060348         2.163266        -0.235666
 H         0.358554         1.037363         1.659821
 H        -0.927629        -0.229747         1.706060
 H        -0.658453        -1.108877        -0.247866
 H        -1.263042         3.173449         2.599367
