19
Iteration:  2584
 O        -3.484441         4.294565         0.420288
 C        -3.316164         3.008880         0.844420
 C        -2.389392         3.032480         2.044908
 C        -1.966094         1.649255         2.653896
 C        -1.615965         1.182797         1.225717
 C        -0.041387         0.827379         1.062485
 C         0.251646         0.574019        -0.425083
 O        -0.247070         1.095768        -1.426880
 C        -1.890709         2.591679         0.614742
 H        -3.537779         4.419723        -0.528769
 H        -4.227118         2.304795         0.905643
 H        -2.019197         4.061023         2.484859
 H        -1.121177         1.824658         3.352417
 H        -2.785477         1.180913         3.279305
 H        -2.226030         0.247711         0.951441
 H         0.416213         1.789357         1.268093
 H         0.332552        -0.031906         1.705116
 H         1.237178        -0.020756        -0.509608
 H        -1.095766         3.195986         0.100933
