19
Iteration:  4539
 O        -3.092365         4.910369         2.027128
 C        -2.246335         4.097542         1.203753
 C        -3.172206         3.130793         0.610792
 C        -2.535787         2.156067        -0.340248
 C        -1.399567         1.804697         0.690808
 C        -0.968474         0.364930         1.076677
 C        -0.242083        -0.342669        -0.142077
 O         0.958097        -0.438444        -0.288946
 C        -2.193648         2.677539         1.670190
 H        -2.618343         5.031146         2.881221
 H        -1.303395         4.503360         0.664304
 H        -4.239214         3.384916         0.691035
 H        -3.029471         1.144998        -0.526521
 H        -2.167593         2.472150        -1.371389
 H        -0.503051         2.327820         0.628858
 H        -0.129597         0.517388         1.742166
 H        -1.792783        -0.064697         1.694232
 H        -0.905951        -0.527338        -1.010423
 H        -2.360616         2.576857         2.788605
