19
Iteration:  1080
 O        -3.552492         4.734105         1.717646
 C        -3.262848         3.602398         0.922459
 C        -2.754565         2.444808         1.849775
 C        -2.463524         1.267256         0.893035
 C        -1.307204         2.115019         0.226295
 C         0.173241         1.467681         0.576862
 C         0.430849         0.282839        -0.287293
 O        -0.133735        -0.821261        -0.272158
 C        -1.780416         3.288609         1.079611
 H        -3.526546         5.553646         1.161614
 H        -3.880095         3.562227        -0.039632
 H        -2.985001         2.289510         2.980280
 H        -2.099428         0.435166         1.423573
 H        -3.293254         0.963408         0.270688
 H        -1.178448         2.424754        -0.908484
 H         1.040319         2.075028         0.193930
 H         0.299416         1.329378         1.669252
 H         1.163033         0.483220        -1.162533
 H        -1.328287         4.216879         1.390436
