19
Iteration:  2583
 O        -3.484609         4.292269         0.414431
 C        -3.322863         3.007049         0.850066
 C        -2.391043         3.024437         2.045024
 C        -1.956292         1.659636         2.655331
 C        -1.620580         1.183510         1.222366
 C        -0.039705         0.821147         1.061446
 C         0.244120         0.568698        -0.425214
 O        -0.239156         1.099255        -1.429337
 C        -1.888793         2.595750         0.622134
 H        -3.543719         4.411753        -0.518388
 H        -4.195447         2.347658         0.921790
 H        -2.045196         4.055723         2.486397
 H        -1.145457         1.793466         3.316142
 H        -2.784628         1.193841         3.316322
 H        -2.179607         0.286375         0.919095
 H         0.406389         1.806018         1.281397
 H         0.300936        -0.037899         1.705574
 H         1.233181        -0.026454        -0.501906
 H        -1.111511         3.196742         0.094994
