19
Iteration:  4048
 O        -3.142831         4.983309         1.760069
 C        -2.685486         3.967914         0.874190
 C        -3.304212         2.624848         1.314739
 C        -2.813851         1.579069         0.388355
 C        -1.262623         1.814587         0.577895
 C        -0.512721         0.607086         1.151582
 C         0.072778        -0.324841         0.106898
 O         0.517383         0.058020        -1.010439
 C        -1.674867         2.980076         1.552626
 H        -2.537463         5.716590         1.750264
 H        -2.616080         4.139764        -0.238612
 H        -4.071508         2.560249         2.136728
 H        -3.168992         0.514608         0.563556
 H        -3.067237         1.828379        -0.632929
 H        -0.769590         2.125462        -0.424256
 H         0.326655         0.952007         1.754689
 H        -1.198734         0.078461         1.814089
 H         0.293685        -1.415909         0.416264
 H        -1.321062         3.456852         2.477632
