19
Iteration:  4333charge 0 multiplicity 1
 O        -3.343468         4.494712         2.298019
 C        -2.656297         4.073941         1.185054
 C        -3.146896         2.797354         0.628890
 C        -2.220442         2.324380        -0.505105
 C        -0.994057         2.372898         0.476112
 C        -0.324035         1.070753         0.812967
 C         0.087055        -0.068204        -0.104075
 O        -0.098250        -1.284811         0.079479
 C        -2.029414         2.760243         1.580574
 H        -2.615923         4.654117         2.949940
 H        -2.197647         4.879767         0.626825
 H        -4.197049         2.445575         0.666881
 H        -2.424196         1.281125        -1.048542
 H        -2.206041         3.037796        -1.371037
 H        -0.375110         3.281366         0.097508
 H         0.642850         1.325206         1.323939
 H        -1.094882         0.609173         1.515208
 H         0.556459         0.305095        -1.088025
 H        -1.949325         2.391427         2.648664
