19
Iteration:  1627
 O        -3.559385         4.772043         1.020493
 C        -3.195079         3.427335         0.926358
 C        -2.621990         2.887878         2.122222
 C        -2.458514         1.381879         2.100536
 C        -1.535991         1.535826         0.755098
 C        -0.139205         1.024419         0.850359
 C         0.528874         0.347537        -0.364144
 O         0.005716        -0.111249        -1.362391
 C        -1.682760         3.132059         0.868347
 H        -3.766379         5.079028         0.107070
 H        -3.920745         2.800618         0.392239
 H        -2.554773         3.499167         3.009856
 H        -1.777458         0.983350         2.850685
 H        -3.327174         0.718662         1.982794
 H        -1.957590         1.075518        -0.248605
 H         0.570163         1.659171         1.400208
 H        -0.168604         0.164429         1.609320
 H         1.607499         0.281766        -0.280509
 H        -0.926734         3.917757         0.719173
