19
Iteration:   588
 O        -3.049437         4.876976         1.635252
 C        -2.902277         3.826024         0.811800
 C        -3.293554         2.541850         1.445836
 C        -2.926117         1.341509         0.537378
 C        -1.406931         1.793524         0.545056
 C        -0.238124         0.895385         1.095065
 C        -0.060467        -0.059606         0.058057
 O         0.840910         0.034549        -0.763682
 C        -1.807784         3.051428         1.382329
 H        -2.948018         5.662939         1.034855
 H        -3.047126         3.821469        -0.291050
 H        -3.875423         2.577475         2.381593
 H        -3.118734         0.548702         1.175290
 H        -3.283185         1.121925        -0.502326
 H        -1.362622         2.041074        -0.438166
 H         0.690787         1.506947         1.095526
 H        -0.382381         0.551788         2.221528
 H        -0.803213        -0.932413        -0.039965
 H        -1.205208         3.432329         2.126118
