19
Iteration:  2022charge 0 multiplicity 1
 O        -3.742953         4.730129         0.946287
 C        -3.397905         3.333192         1.098927
 C        -2.486888         2.946712         2.212841
 C        -2.178659         1.494410         2.314046
 C        -1.723193         1.603971         0.800029
 C        -0.340726         1.008857         0.618449
 C        -0.028347         0.256378        -0.698188
 O         1.063192        -0.038727        -1.146403
 C        -1.947985         3.059045         0.812150
 H        -3.564128         5.069263         0.022614
 H        -4.072706         2.596126         0.792718
 H        -2.195982         3.694587         2.980243
 H        -1.184670         1.392374         2.785451
 H        -2.869847         0.718614         2.731540
 H        -2.511427         1.043108         0.154095
 H         0.551743         1.645026         0.722303
 H        -0.213598         0.207068         1.275849
 H        -0.948901        -0.092528        -1.340355
 H        -1.179542         3.829508         0.365033
