19
Iteration:  4304charge 0 multiplicity 1
 O        -3.558450         4.565604         2.191118
 C        -2.599199         4.005912         1.315704
 C        -3.051470         2.783458         0.676032
 C        -2.210471         2.188199        -0.502300
 C        -0.926311         2.261892         0.402135
 C        -0.165312         1.061798         0.872616
 C         0.036297         0.015392        -0.140112
 O        -0.283987        -1.132287         0.035183
 C        -1.849186         2.732838         1.635547
 H        -3.074481         4.811997         2.969695
 H        -2.155706         4.853112         0.720738
 H        -4.147422         2.590027         0.692330
 H        -2.526708         1.308096        -0.967460
 H        -2.100606         2.855222        -1.386066
 H        -0.305213         2.957726        -0.078068
 H         0.817404         1.345621         1.328728
 H        -0.740422         0.632338         1.663289
 H         0.306792         0.410143        -1.125438
 H        -1.751426         2.258862         2.696711
