19
Iteration:  4991charge 0 multiplicity 1
 O        -3.688311         4.575198         1.735403
 C        -2.451538         3.967614         1.372908
 C        -2.565170         2.880432         0.315684
 C        -1.233353         2.501183        -0.269785
 C        -0.731889         2.075477         1.199795
 C        -0.566988         0.522131         1.418412
 C        -0.643546        -0.347557         0.190377
 O        -0.550519        -0.270330        -1.043856
 C        -2.096837         2.539566         1.708730
 H        -3.702825         4.997355         2.578558
 H        -1.666955         4.787588         1.182837
 H        -3.588421         2.590079         0.028292
 H        -1.223617         1.697138        -0.994376
 H        -0.661007         3.445202        -0.657219
 H         0.056954         2.639687         1.696576
 H         0.451680         0.146230         1.719375
 H        -1.261382         0.120873         2.217759
 H        -0.767861        -1.446760         0.549573
 H        -2.698280         2.062582         2.577452
