19
Iteration:   242
 O        -3.386778         4.802191         1.803135
 C        -2.894789         3.887765         0.940926
 C        -3.152841         2.421547         1.216009
 C        -2.501916         1.678493         0.027105
 C        -1.056997         2.129134         0.371746
 C        -0.327563         1.050250         1.097953
 C         0.431814         0.057672         0.283527
 O        -0.069198        -0.670997        -0.554157
 C        -1.685916         3.100174         1.403988
 H        -3.728794         4.448877         2.635658
 H        -2.768299         4.135047        -0.078204
 H        -4.182152         2.164870         1.627366
 H        -2.693439         0.554866        -0.104227
 H        -2.764755         2.350960        -0.893741
 H        -0.435529         2.528661        -0.408022
 H         0.433633         1.523498         1.751073
 H        -0.974189         0.494731         1.816525
 H         1.587586         0.045256         0.400483
 H        -1.251089         3.331352         2.392123
