19
Iteration:  2202
 O        -3.605208         4.560546         0.757725
 C        -3.324628         3.117380         0.890163
 C        -2.433278         3.039255         2.094246
 C        -2.128316         1.511581         2.369326
 C        -1.535663         1.292076         0.987662
 C        -0.028029         0.991862         0.924433
 C         0.324554         0.990538        -0.516367
 O         0.046575         0.046639        -1.253422
 C        -1.911689         2.804744         0.726337
 H        -3.844598         4.594486        -0.167624
 H        -4.198026         2.460710         0.807585
 H        -2.218034         3.844344         2.850476
 H        -1.429156         1.293440         3.290150
 H        -3.039978         0.960382         2.574202
 H        -2.058169         0.594056         0.267109
 H         0.494614         1.688657         1.586090
 H         0.114873         0.017109         1.263212
 H         0.685160         1.974642        -1.034564
 H        -1.455408         3.477432        -0.039183
