19
Iteration:  3274charge 0 multiplicity 1
 O        -3.053949         4.803915         0.927512
 C        -3.095451         3.395056         0.995294
 C        -2.437362         2.834627         2.176096
 C        -2.523428         1.295411         2.135232
 C        -1.820811         1.317029         0.785400
 C        -0.396801         0.724078         0.983223
 C         0.421487         0.586730        -0.340346
 O        -0.076848         0.502814        -1.441531
 C        -1.790393         2.827261         0.691600
 H        -3.261427         5.084786        -0.005747
 H        -4.007478         2.934741         0.651397
 H        -2.184642         3.569639         2.990114
 H        -1.830016         0.821172         2.967710
 H        -3.595055         0.959191         2.205542
 H        -2.422989         0.724836         0.010482
 H         0.280690         1.313207         1.594956
 H        -0.342598        -0.279698         1.464946
 H         1.566676         0.546973        -0.120470
 H        -0.725428         3.268851         0.516827
