19
Iteration:  4616charge 0 multiplicity 1
 O        -3.038814         4.845079         2.068101
 C        -2.315083         4.057646         1.110262
 C        -3.127713         2.826427         0.781123
 C        -2.341444         2.248945        -0.420158
 C        -1.237121         1.818965         0.540032
 C        -1.330333         0.282628         0.893871
 C        -0.315105        -0.490009         0.001325
 O         0.762155         0.000337        -0.145215
 C        -1.910140         2.755236         1.704746
 H        -2.378025         5.343829         2.637227
 H        -1.843508         4.517739         0.137224
 H        -4.160457         2.824413         1.048283
 H        -2.836595         1.331251        -0.891527
 H        -2.124214         2.967834        -1.244486
 H        -0.200409         1.979581         0.276132
 H        -0.941011         0.104281         1.884830
 H        -2.426763         0.075407         0.969096
 H        -0.444860        -1.585484        -0.418963
 H        -1.592685         2.515290         2.743416
