19
Iteration:  2482charge 0 multiplicity 1
 O        -3.936336         4.278635         0.674326
 C        -3.278655         3.035294         0.961136
 C        -2.236748         3.241442         1.976516
 C        -1.805768         1.817458         2.453101
 C        -1.668125         1.310027         1.023338
 C        -0.364008         0.554870         0.917373
 C         0.353226         0.309966        -0.372756
 O         0.262789         1.128771        -1.236236
 C        -1.839360         2.699986         0.542600
 H        -4.469900         4.208739        -0.173071
 H        -3.992372         2.156015         1.125960
 H        -2.220490         4.177828         2.413484
 H        -0.960086         1.900645         3.013694
 H        -2.659507         1.322992         3.132930
 H        -2.442350         0.531698         0.687804
 H         0.486992         1.058640         1.490568
 H        -0.518459        -0.464589         1.301428
 H         0.799323        -0.677000        -0.486101
 H        -1.502573         3.263506        -0.362154
