19
Iteration:  1272charge 0 multiplicity 1
 O        -3.473696         4.851336         1.638274
 C        -3.304970         3.576188         1.042125
 C        -2.767147         2.519484         1.917661
 C        -2.474930         1.200189         1.050008
 C        -1.379229         1.927766         0.268199
 C        -0.010769         1.418681         0.593984
 C         0.555334         0.348477        -0.245446
 O        -0.059855        -0.685927        -0.467077
 C        -1.809498         3.223262         0.912318
 H        -3.144302         5.429476         0.895476
 H        -4.080866         3.327583         0.333514
 H        -3.030133         2.452505         3.005762
 H        -1.962200         0.346732         1.488588
 H        -3.308680         0.733902         0.417752
 H        -1.351266         2.279969        -0.818615
 H         0.659034         2.292686         0.442632
 H         0.199319         1.263145         1.698756
 H         1.594370         0.339289        -0.716514
 H        -1.085137         3.892274         1.271748
