19
Iteration:   411
 O        -3.461848         4.874341         1.672575
 C        -2.881581         3.852547         0.824270
 C        -3.135875         2.392331         1.202314
 C        -2.478437         1.419082         0.285909
 C        -1.040053         2.023566         0.496722
 C        -0.089850         1.058962         1.269144
 C         0.339621        -0.034024         0.269589
 O        -0.211275        -0.177390        -0.830846
 C        -1.727674         2.977714         1.446454
 H        -2.783579         5.563569         1.918089
 H        -2.959494         4.058079        -0.259606
 H        -3.974058         2.097456         1.900665
 H        -2.479427         0.478797         0.776281
 H        -2.796092         1.216708        -0.714454
 H        -0.464176         2.437220        -0.315409
 H         0.747516         1.452084         1.767303
 H        -0.578973         0.391227         2.024917
 H         1.048929        -0.820752         0.691839
 H        -1.168495         3.288271         2.414075
