19
Iteration:  2381charge 0 multiplicity 1
 O        -3.631197         4.375350         0.460835
 C        -3.328933         3.116726         1.049439
 C        -2.170298         3.027433         2.007616
 C        -2.050345         1.621259         2.560811
 C        -1.636519         1.150530         1.106803
 C        -0.135650         0.929778         1.073895
 C         0.343054         0.496805        -0.350239
 O        -0.019550         1.087350        -1.339124
 C        -2.028105         2.499999         0.455940
 H        -3.857381         4.075075        -0.419055
 H        -4.244502         2.499388         1.261351
 H        -1.665999         3.944184         2.468642
 H        -1.079676         1.604501         3.138755
 H        -2.917582         0.996563         2.948038
 H        -2.144356         0.194486         0.796060
 H         0.199853         1.916615         1.287580
 H         0.410264         0.283988         1.708094
 H         1.023346        -0.466472        -0.506664
 H        -1.571057         3.059979        -0.317929
