19
Iteration:   465
 O        -3.333728         4.823353         1.732718
 C        -2.865780         3.792292         0.908877
 C        -3.185000         2.435933         1.306413
 C        -2.701868         1.398902         0.374809
 C        -1.247288         2.061359         0.368270
 C        -0.254352         1.120828         1.087106
 C         0.216001        -0.152170         0.329752
 O         0.320733        -0.227252        -0.874170
 C        -1.658699         3.107169         1.443196
 H        -3.289947         5.697327         1.266430
 H        -2.741867         4.055139        -0.128317
 H        -3.953782         2.336781         2.124144
 H        -2.766237         0.377946         0.728884
 H        -3.051916         1.372087        -0.677698
 H        -0.841491         2.447604        -0.527984
 H         0.676112         1.492648         1.560205
 H        -0.877094         0.684954         2.015667
 H         0.222618        -1.120425         0.899639
 H        -1.122369         3.536035         2.389499
