19
Iteration:   708charge 0 multiplicity 1
 O        -3.118240         5.076146         1.589711
 C        -2.865378         3.845979         0.835159
 C        -3.323846         2.519824         1.532010
 C        -2.937326         1.185344         0.759263
 C        -1.509967         1.822936         0.602870
 C        -0.356733         0.981299         0.947126
 C        -0.010127         0.150108        -0.269247
 O         1.075437        -0.257882        -0.624515
 C        -1.831191         2.986080         1.347751
 H        -2.560996         5.710267         1.094303
 H        -2.988004         3.853822        -0.204353
 H        -3.871379         2.598488         2.531770
 H        -3.016045         0.403098         1.488025
 H        -3.542875         0.970678        -0.180132
 H        -1.349831         2.207801        -0.478623
 H         0.572760         1.414476         1.284274
 H        -0.594411         0.264453         1.759629
 H        -0.895040        -0.252334        -0.827784
 H        -1.344869         3.432902         2.247062
