19
Iteration:  1762
 O        -3.245836         4.573824         0.450311
 C        -3.116521         3.246789         0.902054
 C        -2.280068         3.071829         2.105849
 C        -2.282378         1.518712         2.488918
 C        -1.817064         1.122443         1.014234
 C        -0.433917         0.344921         0.990040
 C         0.370962         0.670206        -0.306006
 O        -0.103978         1.116060        -1.335427
 C        -1.793732         2.655378         0.725634
 H        -3.192550         4.524223        -0.503287
 H        -3.889772         2.443402         0.726508
 H        -2.002433         3.965781         2.605028
 H        -1.367852         1.451756         3.227080
 H        -3.083113         1.018360         3.050607
 H        -2.640357         0.495461         0.431571
 H         0.198610         0.566650         1.822378
 H        -0.804589        -0.690741         1.060203
 H         1.383223         0.091303        -0.272589
 H        -1.103030         3.165148         0.129612
