19
Iteration:  4265charge 0 multiplicity 1
 O        -3.587250         4.518897         2.065550
 C        -2.729673         4.005109         1.088756
 C        -3.072864         2.641068         0.717974
 C        -2.069407         2.117922        -0.195666
 C        -0.832214         2.382422         0.629661
 C        -0.021189         1.051445         0.914402
 C        -0.091402         0.040665        -0.194166
 O        -0.457238        -1.120518        -0.223820
 C        -1.780390         2.858721         1.765663
 H        -3.099699         5.234834         2.553190
 H        -2.225728         4.649603         0.386741
 H        -4.091634         2.336960         0.786670
 H        -2.183326         0.954998        -0.248066
 H        -2.038658         2.635699        -1.187438
 H        -0.113395         3.267506         0.266271
 H         1.074100         1.187154         1.096545
 H        -0.521491         0.453576         1.747628
 H         0.393164         0.432201        -1.127755
 H        -1.671933         2.854821         2.780264
