19
Iteration:  4405charge 0 multiplicity 1
 O        -3.468389         4.650373         2.122163
 C        -2.496987         4.118063         1.163658
 C        -3.082799         2.903081         0.803471
 C        -2.385085         2.282884        -0.394098
 C        -1.032620         2.198907         0.561664
 C        -0.850291         0.630092         0.806619
 C         0.004873        -0.048611        -0.187301
 O         0.393451        -1.164142        -0.069884
 C        -1.781459         2.921167         1.712791
 H        -3.095711         5.382164         2.706417
 H        -2.114082         4.909923         0.450111
 H        -4.091217         2.625914         1.060308
 H        -2.715453         1.284303        -0.663032
 H        -2.220602         2.996565        -1.264506
 H        -0.057180         2.522417         0.321285
 H        -0.316852         0.412198         1.762365
 H        -1.804696         0.123357         0.710952
 H         0.425834         0.620324        -1.028316
 H        -1.638117         2.829225         2.752377
