19
Iteration:  4692charge 0 multiplicity 1
 O        -2.850111         4.963481         2.197761
 C        -2.300732         3.990393         1.275300
 C        -3.222242         3.060110         0.496357
 C        -2.415947         2.275486        -0.595143
 C        -1.500428         1.874442         0.653561
 C        -1.087020         0.401105         1.066217
 C         0.055545        -0.450510         0.382239
 O         0.752972        -0.253443        -0.573221
 C        -2.366512         2.498128         1.564277
 H        -2.382353         4.994078         3.018981
 H        -1.341124         4.325717         0.743151
 H        -4.242402         3.398685         0.410985
 H        -3.047935         1.518541        -1.096939
 H        -1.977054         2.974255        -1.278409
 H        -0.429573         2.317673         0.594118
 H        -0.894146         0.441514         2.170960
 H        -2.014112        -0.255471         1.031088
 H         0.314280        -1.419805         0.992911
 H        -2.680777         2.148595         2.530267
