19
Iteration:  3647
 O        -3.396025         4.679433         2.050543
 C        -3.058277         3.749248         1.039630
 C        -2.772432         2.389148         1.651837
 C        -2.555415         1.328073         0.567910
 C        -1.308857         2.139053         0.059157
 C         0.038335         1.498695         0.438257
 C         0.168848         0.213887        -0.401555
 O        -0.139603        -0.867761         0.052058
 C        -1.647475         3.302094         1.107143
 H        -3.225683         5.592437         1.701625
 H        -3.618341         3.803970         0.117935
 H        -2.869746         2.231323         2.725459
 H        -2.313171         0.318987         0.725520
 H        -3.341174         1.356010        -0.203466
 H        -1.309109         2.368437        -0.948182
 H         0.888359         2.152259         0.213436
 H         0.047886         1.191814         1.425560
 H         0.529541         0.296622        -1.457948
 H        -0.932021         3.820959         1.761976
