19
Iteration:  2330
 O        -3.646108         4.362719         0.489049
 C        -3.240711         2.976772         0.815220
 C        -2.310520         3.019946         1.982489
 C        -2.081201         1.648405         2.629195
 C        -1.537358         1.229676         1.108607
 C        -0.054691         0.850696         1.049462
 C         0.319248         0.599126        -0.377752
 O        -0.308860         0.954745        -1.349539
 C        -1.722033         2.664719         0.675426
 H        -3.763373         4.266467        -0.499801
 H        -4.045977         2.200388         0.648041
 H        -2.431924         4.005117         2.573937
 H        -1.244090         1.597481         3.255691
 H        -2.918990         1.048417         3.004261
 H        -2.175295         0.377261         0.795780
 H         0.610514         1.676842         1.505155
 H         0.241043        -0.109129         1.662352
 H         1.355431         0.310085        -0.527303
 H        -1.167900         3.291362        -0.078191
