19
Iteration:   648charge 0 multiplicity 1
 O        -3.381147         5.122634         1.346717
 C        -2.815707         3.811486         0.894575
 C        -3.189381         2.540051         1.633638
 C        -2.842030         1.408591         0.768637
 C        -1.362619         1.878939         0.557948
 C        -0.438180         0.736892         0.875527
 C        -0.031917        -0.222188        -0.194934
 O         1.037098        -0.005216        -0.741891
 C        -1.766730         2.997691         1.627468
 H        -2.721159         5.780660         1.698935
 H        -2.893115         3.841857        -0.227173
 H        -4.051480         2.672599         2.213586
 H        -3.027064         0.557886         1.505224
 H        -3.522019         1.224254        -0.038981
 H        -1.122915         2.290405        -0.482437
 H         0.600968         1.026459         1.105656
 H        -0.921911         0.332070         1.692289
 H        -0.619654        -1.169575        -0.368623
 H        -1.154032         3.351223         2.475080
