19
Iteration:  1224
 O        -3.700287         4.638717         1.526581
 C        -3.067964         3.552582         0.879180
 C        -2.737914         2.550134         1.836034
 C        -2.450146         1.256755         1.131037
 C        -1.324680         1.971759         0.343302
 C         0.069151         1.398789         0.592117
 C         0.396915         0.364433        -0.365066
 O        -0.208540        -0.641101        -0.440604
 C        -1.592026         3.299763         1.226864
 H        -3.292767         5.436018         1.206791
 H        -3.340313         3.261298        -0.195174
 H        -3.107017         2.540905         2.825285
 H        -2.062871         0.477511         1.832313
 H        -3.266754         0.840346         0.651912
 H        -1.673645         2.078375        -0.687585
 H         0.782616         2.319844         0.415825
 H         0.380630         1.222841         1.611201
 H         1.275393         0.497481        -1.147439
 H        -1.022164         4.199488         1.612063
