19
Iteration:  2898
 O        -3.841263         4.721209         1.106903
 C        -3.339516         3.367875         1.154347
 C        -2.385711         3.008504         2.191548
 C        -2.274561         1.525362         2.198457
 C        -1.709725         1.482597         0.742313
 C        -0.234073         0.958756         0.632445
 C         0.009337         0.447725        -0.794933
 O         0.996521        -0.225040        -0.995233
 C        -1.895894         3.104912         0.667153
 H        -4.038014         4.965867         0.179930
 H        -4.091565         2.506847         1.000579
 H        -2.250846         3.734418         2.887118
 H        -1.405327         1.209376         2.840966
 H        -3.169901         1.030956         2.313941
 H        -2.357163         1.143854        -0.051335
 H         0.566459         1.606707         0.831212
 H        -0.100589         0.136957         1.366044
 H        -0.709903         0.785430        -1.573300
 H        -1.273183         3.779974         0.117547
