19
Iteration:  2705charge 0 multiplicity 1
 O        -3.725308         4.472966         0.729033
 C        -3.367208         3.131057         0.924122
 C        -2.482282         3.068053         2.116573
 C        -2.108781         1.741648         2.624753
 C        -1.602760         1.356944         1.038901
 C        -0.125127         0.800019         0.896044
 C         0.530830         0.781508        -0.566487
 O         0.073020         0.153459        -1.505550
 C        -1.855388         2.861012         0.726352
 H        -3.586892         4.593780        -0.202983
 H        -4.132116         2.442370         0.712983
 H        -2.110913         3.858866         2.646396
 H        -1.311848         1.838563         3.316430
 H        -2.991819         1.050581         3.064214
 H        -2.190466         0.754759         0.388016
 H         0.536284         1.434430         1.580104
 H        -0.252862        -0.263319         1.323486
 H         1.446874         1.411838        -0.661320
 H        -1.182167         3.563722         0.298048
