19
Iteration:   158charge 0 multiplicity 1
 O        -3.309951         4.727760         1.919013
 C        -2.703410         3.909713         0.919439
 C        -3.226372         2.527831         1.055626
 C        -2.571472         1.660056        -0.039203
 C        -1.261835         2.108715         0.440710
 C        -0.260364         1.095787         1.104852
 C         0.496142         0.097699         0.210658
 O        -0.037938        -0.705825        -0.518553
 C        -1.812747         2.970785         1.584200
 H        -3.651114         5.528075         1.456732
 H        -2.464057         4.299381        -0.123839
 H        -4.224981         2.225723         1.451155
 H        -2.862393         0.566279        -0.065115
 H        -2.623876         1.956374        -1.019722
 H        -0.670944         2.464643        -0.445904
 H         0.450646         1.721022         1.675112
 H        -0.879691         0.514211         1.810588
 H         1.645038         0.181597         0.269115
 H        -1.401893         3.312372         2.500596
