19
Iteration:  1823
 O        -3.225899         4.508931         0.284882
 C        -3.083290         3.237824         0.840388
 C        -2.252767         3.037531         2.109634
 C        -2.256391         1.609457         2.588669
 C        -1.712464         1.052011         1.135208
 C        -0.475349         0.253849         0.867825
 C         0.213507         0.518346        -0.391432
 O        -0.165024         1.445597        -1.088256
 C        -1.752327         2.600722         0.724349
 H        -3.086931         4.349789        -0.650783
 H        -3.978867         2.680613         0.717682
 H        -1.978345         3.980285         2.617038
 H        -1.541603         1.501141         3.341701
 H        -3.144603         1.031533         2.841294
 H        -2.474432         0.473430         0.673341
 H         0.466660         0.438118         1.530779
 H        -0.616375        -0.839754         0.995340
 H         1.123359        -0.096057        -0.620541
 H        -1.019008         3.131034         0.082852
