19
Iteration:  2648
 O        -3.589142         4.363560         0.447011
 C        -3.214334         3.069934         0.951772
 C        -2.181347         3.063251         2.091577
 C        -2.067730         1.551855         2.469524
 C        -1.639825         1.210397         1.006532
 C        -0.075458         0.893063         1.048081
 C         0.394688         0.912117        -0.366211
 O        -0.372529         0.606877        -1.267781
 C        -1.812077         2.717660         0.634823
 H        -3.846782         4.161417        -0.504291
 H        -4.016006         2.439184         1.017454
 H        -2.137824         3.942673         2.887970
 H        -1.424109         1.290485         3.224550
 H        -2.981438         0.843619         2.976576
 H        -2.224600         0.562788         0.390430
 H         0.618029         1.600702         1.764265
 H         0.024154        -0.193528         1.285542
 H         1.435900         1.179761        -0.582537
 H        -1.253089         3.234428        -0.195848
