19
Iteration:  1195charge 0 multiplicity 1
 O        -3.799905         4.768694         1.452833
 C        -3.062544         3.594399         0.931118
 C        -2.848706         2.507070         1.868246
 C        -2.294852         1.166790         1.124507
 C        -1.205298         2.070012         0.442216
 C         0.201385         1.450421         0.538547
 C         0.358143         0.321584        -0.485087
 O        -0.293059        -0.729905        -0.426341
 C        -1.631176         3.269615         1.364590
 H        -3.694463         5.376306         0.687302
 H        -3.209744         3.308857        -0.094349
 H        -3.426440         2.452628         2.842017
 H        -1.768529         0.407098         1.796935
 H        -3.057691         0.645779         0.442791
 H        -1.448918         2.346092        -0.660086
 H         0.844171         2.223125         0.085898
 H         0.607801         1.170428         1.547608
 H         1.194767         0.388879        -1.116702
 H        -1.109569         4.072053         1.861797
