19
Iteration:  4322charge 0 multiplicity 1
 O        -3.415654         4.491832         2.241112
 C        -2.555084         4.029950         1.230793
 C        -3.165998         2.766363         0.614018
 C        -2.280733         2.355016        -0.534469
 C        -1.025274         2.414721         0.472219
 C        -0.263985         1.034822         0.875103
 C         0.043381        -0.031570        -0.150854
 O        -0.167826        -1.204923         0.085909
 C        -1.923677         2.733371         1.536619
 H        -2.920764         4.684546         3.033336
 H        -1.953959         4.745439         0.673385
 H        -4.139324         2.333858         0.913959
 H        -2.333226         1.168468        -0.682443
 H        -2.364196         2.904949        -1.493576
 H        -0.104819         3.094327         0.394814
 H         0.747664         1.245204         1.332509
 H        -0.706698         0.474033         1.770447
 H         0.686776         0.243679        -1.057796
 H        -1.865198         2.435640         2.607219
