19
Iteration:   952
 O        -3.473176         4.737521         1.895253
 C        -3.107536         3.753015         0.966811
 C        -2.932789         2.404069         1.641154
 C        -2.659908         1.364530         0.577059
 C        -1.399319         2.201431         0.186782
 C        -0.059642         1.536041         0.342272
 C        -0.040673         0.062915        -0.354051
 O         0.618525        -0.853041         0.087921
 C        -1.695634         3.230598         1.261932
 H        -3.042613         5.525041         1.564186
 H        -3.185242         3.904174        -0.076363
 H        -3.482153         2.246008         2.624730
 H        -2.473433         0.341094         1.169340
 H        -3.502616         1.209834        -0.175251
 H        -1.432421         2.421891        -0.926939
 H         0.838686         2.000871        -0.073776
 H         0.163498         1.382549         1.386267
 H        -0.774749        -0.035274        -1.305523
 H        -1.002875         3.786444         1.869366
