19
Iteration:  2592
 O        -3.507174         4.349995         0.455308
 C        -3.262965         2.994953         0.822222
 C        -2.357890         3.070499         2.037091
 C        -2.025640         1.639257         2.655511
 C        -1.556593         1.132104         1.261103
 C        -0.102580         0.871025         1.036390
 C         0.330121         0.636991        -0.432125
 O        -0.310623         1.050215        -1.379924
 C        -1.899689         2.520398         0.593752
 H        -3.477753         4.338609        -0.494877
 H        -4.007655         2.324160         0.660734
 H        -1.980530         4.044158         2.443985
 H        -1.279050         1.824371         3.312004
 H        -2.876050         0.927046         3.021012
 H        -2.244493         0.405087         1.046239
 H         0.617311         1.747275         1.284307
 H         0.455366         0.149601         1.640183
 H         1.214680        -0.022205        -0.647512
 H        -1.184930         3.091656         0.003861
