19
Iteration:  4715charge 0 multiplicity 1
 O        -2.814042         5.015619         2.118839
 C        -2.345817         3.923895         1.309741
 C        -3.223359         3.078750         0.438844
 C        -2.268513         2.326857        -0.500611
 C        -1.385693         1.825971         0.585396
 C        -1.053939         0.282286         1.023818
 C         0.108535        -0.348784         0.453331
 O         0.550545        -0.195212        -0.624536
 C        -2.481347         2.458389         1.694352
 H        -2.369458         4.957729         3.002355
 H        -1.390564         4.241218         0.742698
 H        -4.307870         3.031685         0.252113
 H        -2.806833         1.429175        -0.940800
 H        -1.824502         2.946951        -1.268397
 H        -0.357467         2.247648         0.634643
 H        -0.905737         0.397353         2.108610
 H        -1.927834        -0.459615         0.977843
 H         0.589541        -1.191393         1.152486
 H        -2.984542         2.304050         2.591678
