19
Iteration:  4461
 O        -3.116656         4.927029         2.007529
 C        -2.482754         4.087292         1.185497
 C        -3.291928         2.896295         0.755713
 C        -2.365768         2.243556        -0.322499
 C        -1.245684         2.064131         0.711381
 C        -0.800058         0.601786         1.027946
 C        -0.071927        -0.056342        -0.238352
 O         0.700306        -0.972305        -0.242852
 C        -2.225385         2.657762         1.714341
 H        -2.439730         5.236397         2.606569
 H        -1.738444         4.431923         0.387713
 H        -4.376235         2.679855         0.719407
 H        -2.649388         1.317346        -0.941720
 H        -1.917857         2.994853        -1.078632
 H        -0.367360         2.649855         0.609669
 H        -0.096361         0.545712         1.895726
 H        -1.533577        -0.237240         1.251603
 H        -0.478377         0.365555        -1.202584
 H        -2.247203         2.375907         2.749569
