19
Iteration:  2183charge 0 multiplicity 1
 O        -3.592715         4.588646         0.789341
 C        -3.421695         3.246522         1.121012
 C        -2.392771         2.945678         2.111308
 C        -2.199865         1.484927         2.359189
 C        -1.583758         1.352644         0.929113
 C        -0.041755         1.084733         0.878231
 C         0.341914         0.960284        -0.556085
 O         0.202900        -0.069199        -1.211189
 C        -2.016758         2.783124         0.541435
 H        -3.673298         4.709011        -0.187808
 H        -4.328127         2.492841         0.965423
 H        -2.089963         3.815025         2.670589
 H        -1.601598         1.296767         3.189066
 H        -3.057853         0.857962         2.595299
 H        -2.046451         0.567035         0.213843
 H         0.605496         1.842646         1.371524
 H         0.267785         0.117486         1.506233
 H         0.811524         1.783765        -1.113283
 H        -1.207592         3.498982         0.105827
