19
Iteration:  3196charge 0 multiplicity 1
 O        -3.136306         4.665669         0.634053
 C        -3.041137         3.333453         0.974555
 C        -2.205635         2.973628         2.175379
 C        -2.324444         1.501865         2.354514
 C        -1.939610         1.180961         0.913030
 C        -0.702773         0.311453         0.867917
 C         0.218428         0.367263        -0.410565
 O         0.139486         1.269210        -1.240326
 C        -1.753053         2.674531         0.671921
 H        -3.326905         4.738670        -0.355918
 H        -3.899332         2.714217         0.797565
 H        -1.820454         3.648671         2.924927
 H        -1.494377         1.134103         3.142463
 H        -3.235565         1.042109         2.795115
 H        -2.787050         0.616296         0.404379
 H        -0.011850         0.579399         1.654235
 H        -0.882460        -0.719305         1.070844
 H         0.967892        -0.402353        -0.313530
 H        -0.902084         3.212027         0.187126
