19
Iteration:  4959charge 0 multiplicity 1
 O        -3.615943         4.438020         1.926646
 C        -2.493304         3.989018         1.287638
 C        -2.598621         2.970904         0.182355
 C        -1.226406         2.761490        -0.320969
 C        -0.784624         2.119567         1.117389
 C        -0.666350         0.492091         1.348524
 C        -0.662002        -0.519403         0.282154
 O        -0.454360        -0.359247        -0.922685
 C        -2.087743         2.622877         1.622948
 H        -3.427185         4.450791         2.892894
 H        -1.754725         4.844610         0.960347
 H        -3.559062         2.559326        -0.125544
 H        -1.025433         2.003387        -1.071021
 H        -0.703141         3.762136        -0.613362
 H         0.144103         2.515545         1.778598
 H         0.267285         0.130312         1.821403
 H        -1.489283         0.177110         2.128885
 H        -0.837849        -1.577392         0.567748
 H        -2.614040         2.215667         2.557893
