19
Iteration:  3367charge 0 multiplicity 1
 C        -0.420578         2.617390         0.203964
 C        -0.792100         1.182038        -0.025760
 C        -2.335287         0.842590         0.237765
 C        -1.929560        -0.466944        -0.503655
 C        -0.828594        -1.107446         0.431904
 C        -0.109471         0.119195         0.786773
 O         0.877804         0.344960         1.512211
 C        -1.023117         0.368662        -1.330039
 O        -1.520610         0.968776        -2.512970
 H         0.610283         2.852424        -0.089588
 H        -1.192176         3.089138        -0.462624
 H        -0.646934         2.877053         1.197125
 H        -2.805985         0.666300         1.214869
 H        -3.015972         1.389200        -0.378226
 H        -2.665380        -1.047884        -1.060804
 H        -1.177631        -1.562937         1.336062
 H        -0.116987        -1.793929        -0.060023
 H         0.017729        -0.054436        -1.542939
 H        -1.923686         1.907002        -2.424508
