19
Iteration:  1409
 C        -0.171692         2.616362         0.046694
 C        -0.794011         1.142258        -0.001554
 C        -2.111455         0.722338         0.616509
 C        -1.992387        -0.489494        -0.284906
 C        -0.714391        -1.174034         0.279346
 C         0.093983         0.062235         0.539073
 O         1.224071         0.215715         1.026061
 C        -1.373502         0.458198        -1.334045
 O        -2.194010         1.285220        -2.111731
 H         0.849592         2.677636        -0.032295
 H        -0.560924         3.096299        -0.863726
 H        -0.590983         3.231017         0.921097
 H        -2.158827         0.399829         1.651198
 H        -3.025061         1.191089         0.263553
 H        -2.922346        -1.107620        -0.502398
 H        -0.852209        -1.689270         1.282839
 H        -0.429779        -1.943638        -0.482143
 H        -0.612424        -0.069542        -1.830275
 H        -1.892641         2.157830        -2.047616
