19
Iteration:   591
 C        -0.091122         2.550564        -0.270215
 C        -0.682850         1.144666        -0.115899
 C        -1.908945         0.669291         0.916289
 C        -2.011460        -0.461436        -0.029810
 C        -0.693802        -1.264610         0.036202
 C         0.253894         0.006900         0.281600
 O         1.407322         0.084062         0.705901
 C        -1.621870         0.528370        -1.214679
 O        -2.569489         1.597794        -1.550008
 H         0.797147         2.671116         0.310299
 H         0.060706         2.787303        -1.271671
 H        -0.917856         3.263022         0.133722
 H        -1.696821         0.528001         2.072842
 H        -2.768699         1.403033         0.889764
 H        -3.010787        -0.925852        -0.068358
 H        -0.638310        -1.945605         0.860121
 H        -0.344009        -1.913199        -0.885481
 H        -1.342658        -0.066893        -2.066306
 H        -2.944793         1.226538        -2.379212
