19
Iteration:  1653
 C        -0.350771         2.643554         0.121555
 C        -0.877692         1.247697         0.093787
 C        -2.279361         0.772631         0.550105
 C        -2.007248        -0.484318        -0.279885
 C        -0.868817        -1.135814         0.448583
 C         0.043003         0.112057         0.568531
 O         1.218126         0.161640         0.831047
 C        -1.174990         0.448587        -1.275836
 O        -1.849493         1.123791        -2.259004
 H         0.450536         2.527004         0.951115
 H         0.082652         2.942341        -0.844992
 H        -1.151635         3.206359         0.460309
 H        -2.279773         0.518863         1.665852
 H        -3.038070         1.537250         0.339281
 H        -2.838972        -1.122778        -0.545218
 H        -1.134684        -1.671519         1.416373
 H        -0.288834        -1.942176        -0.120877
 H        -0.251203         0.081977        -1.827582
 H        -1.728779         2.111102        -2.058791
