19
Iteration:    80charge 0 multiplicity 1
 C        -0.024453         2.489167        -0.229131
 C        -0.692940         1.147847        -0.056222
 C        -1.614682         0.634130         0.993992
 C        -1.942805        -0.477466        -0.118999
 C        -0.595837        -1.245083        -0.195670
 C         0.272989        -0.010467         0.017022
 O         1.388426         0.048479         0.520091
 C        -1.827919         0.633083        -1.133908
 O        -2.912084         1.571326        -1.178793
 H         0.141585         2.706278        -1.342275
 H        -0.659550         3.245728         0.104028
 H         0.983841         2.728912         0.207175
 H        -1.097911         0.237635         1.919602
 H        -2.537228         1.207204         1.293077
 H        -2.847238        -1.145126        -0.057024
 H        -0.428071        -1.969732         0.506605
 H        -0.481864        -1.608290        -1.258076
 H        -1.582447         0.372873        -2.187041
 H        -2.497485         2.267134        -0.643873
