19
Iteration:  3463
 C        -0.224990         2.617267        -0.083046
 C        -0.686320         1.166846        -0.103103
 C        -2.298058         0.747184         0.246924
 C        -1.868155        -0.621444        -0.532487
 C        -0.772163        -1.148618         0.363531
 C        -0.082722         0.162971         0.787851
 O         0.638613         0.367966         1.807169
 C        -0.963727         0.415788        -1.405249
 O        -1.735600         1.217561        -2.342085
 H         0.909165         2.509487        -0.119110
 H        -0.701901         3.353581        -0.880470
 H        -0.486756         2.908365         0.932550
 H        -2.689506         0.510746         1.257094
 H        -3.086287         1.159338        -0.343429
 H        -2.528821        -1.263596        -0.911732
 H        -0.934732        -1.765860         1.220735
 H        -0.014934        -1.604044        -0.255574
 H        -0.041128        -0.044231        -1.859114
 H        -2.597811         0.811709        -2.431908
