19
Iteration:  1369charge 0 multiplicity 1
 C        -0.416428         2.691990         0.122703
 C        -0.801161         1.313729         0.196571
 C        -2.229614         0.715982         0.565234
 C        -1.962202        -0.463761        -0.246993
 C        -0.821176        -1.146114         0.450079
 C         0.067652         0.041573         0.582357
 O         1.299892         0.041890         0.591287
 C        -1.239883         0.423424        -1.229778
 O        -1.928706         1.238682        -2.175669
 H         0.550645         2.951307         0.696654
 H        -0.368015         3.073199        -0.925043
 H        -1.188883         3.368479         0.457752
 H        -2.293873         0.502438         1.657424
 H        -3.113021         1.350844         0.343457
 H        -2.787450        -1.143332        -0.489092
 H        -1.120991        -1.618666         1.357658
 H        -0.281333        -1.859907        -0.082168
 H        -0.423663         0.037036        -1.944577
 H        -2.540000         1.932695        -1.695689
