19
Iteration:  2412
 C        -0.350884         2.689141         0.157815
 C        -0.871195         1.172747         0.059272
 C        -2.372684         0.769829         0.376269
 C        -1.945541        -0.477193        -0.486181
 C        -0.935504        -1.148989         0.583746
 C        -0.063211         0.091999         0.812128
 O         1.103424         0.246623         1.129614
 C        -1.016899         0.482731        -1.317335
 O        -1.619767         1.110208        -2.467699
 H         0.201968         2.916737         1.036164
 H         0.336320         3.067032        -0.608562
 H        -1.215963         3.367717         0.151196
 H        -2.517875         0.466853         1.531694
 H        -3.302219         1.181103        -0.110742
 H        -2.672609        -1.017304        -1.025876
 H        -1.598262        -1.408055         1.426893
 H        -0.275851        -1.989230         0.320800
 H        -0.067006         0.215575        -1.726857
 H        -2.415941         0.542161        -2.495733
