19
Iteration:  3140charge 0 multiplicity 1
 C        -0.231065         2.632298        -0.153895
 C        -0.771123         1.208380        -0.061448
 C        -2.301586         0.837545         0.288811
 C        -1.793334        -0.581214        -0.490634
 C        -0.702691        -1.257068         0.351388
 C        -0.093844         0.124570         0.767649
 O         0.576998         0.371412         1.779364
 C        -1.004063         0.388632        -1.398750
 O        -1.770591         1.111605        -2.326613
 H         0.616889         2.777069        -0.868756
 H        -1.033658         3.406134        -0.201533
 H         0.219880         2.730500         0.905279
 H        -2.400600         0.777704         1.367837
 H        -2.872189         1.442470        -0.347692
 H        -2.489244        -1.295593        -1.030105
 H        -1.174540        -1.658782         1.287694
 H        -0.086439        -2.022484        -0.180731
 H        -0.074301        -0.106483        -2.015153
 H        -1.326301         1.995451        -2.454010
