19
Iteration:    32charge 0 multiplicity 1
 C        -0.023584         2.569246        -0.040741
 C        -0.631644         1.212438        -0.032329
 C        -1.630516         0.647661         1.050720
 C        -1.913945        -0.394258        -0.061876
 C        -0.642235        -1.208083        -0.208816
 C         0.295691        -0.046313         0.043236
 O         1.468908        -0.061399         0.298286
 C        -1.793840         0.664942        -1.186640
 O        -2.951300         1.528138        -1.197087
 H         1.028283         2.558605         0.187409
 H        -0.193972         3.044602        -1.049566
 H        -0.416792         3.257180         0.681216
 H        -1.249422         0.329276         1.996057
 H        -2.510088         1.254384         1.081179
 H        -2.804894        -0.935973         0.199552
 H        -0.769722        -1.793655         0.789201
 H        -0.522054        -1.809773        -1.090209
 H        -1.603670         0.337125        -2.181643
 H        -3.638788         0.960475        -1.673426
