19
Iteration:  2899
 C        -0.152792         2.639374        -0.037561
 C        -0.725299         1.227898        -0.097862
 C        -2.278352         0.661515         0.370566
 C        -1.865835        -0.560429        -0.523859
 C        -0.787138        -1.246366         0.462360
 C        -0.072434         0.058624         0.796813
 O         0.668485         0.407464         1.712240
 C        -1.050148         0.520790        -1.440037
 O        -1.726537         1.130804        -2.512557
 H         0.629408         2.474437         0.752913
 H         0.239194         3.057520        -1.034926
 H        -0.879205         3.370260         0.321601
 H        -2.735970         0.636770         1.426009
 H        -3.011482         1.346782        -0.167312
 H        -2.654110        -1.146405        -0.936508
 H        -1.162268        -1.717338         1.357350
 H         0.004801        -1.950842         0.172326
 H        -0.190467         0.163531        -1.965024
 H        -2.603304         1.550744        -2.155103
