19
Iteration:  3778charge 0 multiplicity 1
 C        -0.261370         2.656242        -0.002796
 C        -0.725765         1.201692        -0.153881
 C        -2.232222         0.832474         0.281244
 C        -1.954712        -0.497806        -0.503824
 C        -0.865747        -1.173424         0.461194
 C        -0.120519         0.175546         0.836676
 O         0.720959         0.293510         1.706442
 C        -0.919565         0.402902        -1.420019
 O        -1.737754         1.007684        -2.392580
 H         0.321470         3.055726        -0.889171
 H        -1.190365         3.332606         0.191286
 H         0.396145         2.635516         0.951866
 H        -2.479831         0.775643         1.258598
 H        -2.878086         1.406713        -0.312188
 H        -2.661512        -1.120251        -1.075681
 H        -1.094266        -1.892230         1.261707
 H        -0.419546        -1.825118        -0.310787
 H        -0.048909        -0.118761        -1.905365
 H        -1.200963         1.768995        -2.832092
