19
Iteration:  1330charge 0 multiplicity 1
 C        -0.426028         2.630869         0.289962
 C        -0.844152         1.166693         0.094546
 C        -2.270599         0.791959         0.572818
 C        -1.977634        -0.404242        -0.192931
 C        -0.849769        -1.089268         0.578997
 C         0.115357         0.071859         0.479671
 O         1.334365         0.080697         0.425595
 C        -1.189973         0.546129        -1.191154
 O        -1.885477         1.211743        -2.202027
 H         0.058340         2.633506         1.290785
 H         0.237713         2.958740        -0.514018
 H        -1.327606         3.255295         0.444782
 H        -2.497880         0.697773         1.690933
 H        -3.161462         1.356310         0.324507
 H        -2.707802        -1.152892        -0.524231
 H        -1.253363        -1.283954         1.637586
 H        -0.519252        -2.171811         0.018056
 H        -0.536767        -0.104772        -1.904544
 H        -2.615399         0.582897        -2.323725
