19
Iteration:   691
 C        -0.072258         2.627229        -0.152475
 C        -0.633207         1.177312        -0.085944
 C        -1.836059         0.837265         0.870543
 C        -2.044260        -0.431274        -0.075824
 C        -0.721715        -1.291815         0.127580
 C         0.235184         0.014329         0.240508
 O         1.353811         0.039173         0.764691
 C        -1.562124         0.519402        -1.245941
 O        -2.641205         1.419007        -1.742078
 H        -0.715254         3.251833        -0.729865
 H         0.131121         3.014885         0.840651
 H         0.939841         2.657629        -0.668770
 H        -1.561347         0.623271         2.034091
 H        -2.668635         1.585742         0.914376
 H        -3.026849        -0.967227        -0.130922
 H        -0.569492        -1.784152         1.142979
 H        -0.526579        -2.096303        -0.660306
 H        -0.888170         0.121472        -2.030816
 H        -3.383336         0.849765        -1.893300
