19
Iteration:  2570charge 0 multiplicity 1
 C        -0.154170         2.679283        -0.030558
 C        -0.777707         1.273595        -0.078478
 C        -2.196248         0.767417         0.490381
 C        -1.806123        -0.565608        -0.460459
 C        -0.763754        -1.165950         0.402121
 C        -0.088535         0.129296         0.696235
 O         0.673758         0.242542         1.613658
 C        -1.054452         0.433403        -1.425224
 O        -1.820270         1.117000        -2.475929
 H         0.157879         2.965809        -1.059087
 H        -0.876641         3.410007         0.356725
 H         0.646127         2.702903         0.672129
 H        -2.183259         0.716899         1.587303
 H        -3.078695         1.252123         0.036951
 H        -2.676768        -1.150814        -0.797148
 H        -1.078702        -1.708499         1.328479
 H         0.045919        -1.739777        -0.144287
 H        -0.238165        -0.133395        -1.838416
 H        -2.761395         1.327797        -2.145731
