19
Iteration:   653charge 0 multiplicity 1
 C         0.088848         2.546055        -0.326856
 C        -0.596399         1.192520        -0.157489
 C        -1.806807         0.795410         0.824765
 C        -2.034684        -0.514653        -0.194723
 C        -0.608326        -1.215277        -0.018758
 C         0.238627         0.009207         0.317715
 O         1.265113         0.070891         1.010524
 C        -1.621510         0.521410        -1.296429
 O        -2.786867         1.463761        -1.480000
 H         0.356323         2.807202        -1.425582
 H        -0.653273         3.362661        -0.002730
 H         0.973569         2.622069         0.285116
 H        -1.379455         0.563674         1.805299
 H        -2.602826         1.533556         0.744071
 H        -2.993397        -1.011499        -0.166271
 H        -0.546927        -1.942469         0.779193
 H        -0.305367        -1.621383        -0.940219
 H        -1.376634         0.283188        -2.385508
 H        -3.526182         0.849472        -1.619325
