19
Iteration:  3065
 C        -0.344028         2.676461         0.159051
 C        -0.830204         1.215154        -0.041436
 C        -2.393499         0.778640         0.255593
 C        -1.933290        -0.545304        -0.469066
 C        -0.976785        -1.168462         0.561372
 C        -0.150296         0.150433         0.783747
 O         0.924909         0.370110         1.344300
 C        -0.984396         0.370271        -1.309358
 O        -1.393305         1.019873        -2.488658
 H         0.443682         2.928429        -0.600650
 H        -1.264096         3.288387         0.048703
 H         0.017777         3.042713         1.208890
 H        -2.923958         0.690658         1.278849
 H        -3.005752         1.519759        -0.375086
 H        -2.635352        -1.294452        -0.964482
 H        -1.565654        -1.510536         1.434020
 H        -0.350361        -2.005255         0.264788
 H        -0.074497        -0.035870        -1.667822
 H        -2.256087         1.420742        -2.274226
