19
Iteration:  2650
 C        -0.349169         2.625850         0.006168
 C        -0.841094         1.170556        -0.094975
 C        -2.384050         0.731665         0.363993
 C        -1.880427        -0.480743        -0.474206
 C        -0.896556        -1.216856         0.495600
 C        -0.003280         0.122092         0.770786
 O         0.947179         0.336686         1.525670
 C        -1.009509         0.413073        -1.384966
 O        -1.636392         1.158400        -2.481795
 H        -0.967889         3.404275        -0.409032
 H        -0.086891         2.768968         1.071273
 H         0.603414         2.515455        -0.555719
 H        -2.701620         0.447185         1.274840
 H        -3.059502         1.470328         0.037469
 H        -2.735256        -1.200842        -0.794526
 H        -1.430243        -1.388697         1.451920
 H        -0.311259        -2.048546         0.089420
 H        -0.040973         0.078294        -1.805856
 H        -2.339077         1.659119        -1.926276
