19
Iteration:  1444
 C        -0.064743         2.495608        -0.047261
 C        -0.684715         1.219792        -0.106999
 C        -2.049533         0.726345         0.578998
 C        -1.917953        -0.458630        -0.373611
 C        -0.644892        -1.184400         0.159384
 C         0.136611         0.032830         0.505593
 O         1.023666         0.232763         1.345136
 C        -1.321368         0.558782        -1.379582
 O        -2.441704         1.240362        -1.939451
 H         0.797486         2.621309        -0.749520
 H        -0.857468         3.203239        -0.359742
 H         0.321661         2.861344         0.906006
 H        -2.066711         0.622141         1.687822
 H        -2.869835         1.446977         0.360563
 H        -2.761087        -1.104635        -0.723018
 H        -0.824969        -1.695641         1.110550
 H        -0.186729        -1.884876        -0.487991
 H        -0.682647         0.195567        -2.172948
 H        -2.111423         1.494479        -2.759834
