19
Iteration:  2297charge 0 multiplicity 1
 C        -0.159159         2.613629        -0.227979
 C        -0.717285         1.212587        -0.035326
 C        -2.216289         0.798668         0.412196
 C        -1.876913        -0.560283        -0.519257
 C        -0.641641        -1.165062         0.262177
 C        -0.047439         0.181516         0.784706
 O         0.797863         0.225353         1.663027
 C        -1.133795         0.343463        -1.404579
 O        -2.059649         1.191326        -2.137304
 H        -0.866007         3.478129        -0.071497
 H         0.586971         2.718670         0.545865
 H         0.320380         2.678688        -1.228236
 H        -2.435809         0.659042         1.509093
 H        -2.960112         1.486741        -0.079087
 H        -2.854383        -1.082171        -0.756882
 H        -0.716440        -1.925105         1.002838
 H         0.010988        -1.571684        -0.473942
 H        -0.354941         0.011317        -2.037824
 H        -1.522101         1.794873        -2.734240
