19
Iteration:  1207charge 0 multiplicity 1
 C        -0.187759         2.508510        -0.364373
 C        -0.682189         1.143470        -0.142364
 C        -1.919075         0.770943         0.705809
 C        -1.884154        -0.464241        -0.271476
 C        -0.589283        -1.243253         0.090355
 C         0.199278        -0.018315         0.512348
 O         1.016429         0.173032         1.401674
 C        -1.436397         0.529779        -1.378453
 O        -2.407318         1.470117        -1.828924
 H        -1.127588         3.129368        -0.501008
 H         0.314623         2.901628         0.541996
 H         0.513355         2.492645        -1.163189
 H        -1.711804         0.705102         1.794124
 H        -2.859665         1.314442         0.487145
 H        -2.751374        -1.064485        -0.243003
 H        -0.655333        -1.962711         0.990913
 H        -0.212177        -1.768382        -0.945727
 H        -0.651491         0.252640        -2.179773
 H        -3.091439         1.008323        -2.420855
