19
Iteration:  2734
 C        -0.418071         2.747662         0.259054
 C        -0.871168         1.327955         0.207078
 C        -2.319036         0.762760         0.284914
 C        -1.929332        -0.527137        -0.543112
 C        -0.989144        -1.091945         0.616361
 C        -0.133931         0.150214         0.869691
 O         1.053453         0.213721         1.172530
 C        -0.997288         0.245045        -1.507040
 O        -1.506413         1.037276        -2.550538
 H        -1.225781         3.418285         0.573285
 H         0.512738         3.027055         0.813818
 H        -0.238438         3.113597        -0.719906
 H        -2.556241         0.556020         1.430356
 H        -3.047205         1.499003        -0.260692
 H        -2.698043        -1.091600        -1.007674
 H        -1.432889        -1.327523         1.608992
 H        -0.338287        -1.951718         0.461570
 H         0.019998         0.038794        -1.571569
 H        -2.313369         1.332007        -2.210174
