19
Iteration:  1155
 C        -0.034280         2.502880        -0.138092
 C        -0.716806         1.211458        -0.110894
 C        -1.983763         0.803111         0.671051
 C        -1.953075        -0.448891        -0.322761
 C        -0.646648        -1.202168         0.234536
 C         0.157029         0.057395         0.449058
 O         1.147416         0.184553         1.181293
 C        -1.394414         0.502972        -1.324241
 O        -2.561760         1.222296        -1.945741
 H        -0.083057         2.941758        -1.219815
 H        -0.363185         3.240647         0.653232
 H         0.999635         2.267266         0.144957
 H        -1.726421         0.658135         1.780420
 H        -2.791323         1.551419         0.495760
 H        -2.825437        -1.051512        -0.516911
 H        -0.650096        -1.880419         1.099712
 H        -0.175957        -1.682271        -0.597542
 H        -0.746086         0.131796        -2.117203
 H        -2.636196         2.201014        -1.665537
