19
Iteration:   180charge 0 multiplicity 1
 C        -0.081791         2.572351         0.258412
 C        -0.649984         1.225643         0.180077
 C        -1.840439         0.710214         0.974776
 C        -2.009975        -0.418639        -0.003416
 C        -0.725959        -1.162899         0.206410
 C         0.246782         0.052585         0.048040
 O         1.479723        -0.018573        -0.180244
 C        -1.660243         0.526328        -1.112804
 O        -2.754895         1.361301        -1.560000
 H        -0.202519         2.906967         1.312963
 H         0.986949         2.565246        -0.025102
 H        -0.458610         3.413334        -0.351096
 H        -1.688677         0.523808         2.102210
 H        -2.710456         1.415476         0.881906
 H        -2.974771        -1.014577        -0.023046
 H        -0.771355        -1.532364         1.220704
 H        -0.243324        -1.953785        -0.369129
 H        -1.030846         0.254618        -1.977252
 H        -2.330359         1.877633        -2.248241
