19
Iteration:  1364
 C        -0.413545         2.753861         0.142152
 C        -0.770246         1.267978         0.241213
 C        -2.234784         0.704417         0.598462
 C        -1.972804        -0.505450        -0.242364
 C        -0.830607        -1.140867         0.490078
 C         0.060214         0.089504         0.564834
 O         1.278896         0.025476         0.548250
 C        -1.224660         0.449966        -1.291992
 O        -1.919080         1.256134        -2.197898
 H         0.454750         2.993634         0.673930
 H        -0.210885         3.037733        -0.896750
 H        -1.273854         3.393814         0.531632
 H        -2.321213         0.485742         1.661931
 H        -3.011618         1.379505         0.224039
 H        -2.792272        -1.211391        -0.510213
 H        -1.237115        -1.593540         1.444313
 H        -0.170657        -1.941734        -0.035688
 H        -0.455093        -0.170540        -1.724412
 H        -2.563329         1.696919        -1.697703
