19
Iteration:  4839charge 0 multiplicity 1
 C        -0.214384         2.590009        -0.186098
 C        -0.724968         1.219242        -0.074246
 C        -2.169932         0.749154         0.396177
 C        -1.863446        -0.464555        -0.557705
 C        -0.759081        -1.152461         0.364238
 C        -0.082386         0.049488         0.873586
 O         0.596141         0.315993         1.779157
 C        -1.009906         0.434243        -1.408761
 O        -1.817758         1.107861        -2.381785
 H         0.269888         3.069563         0.712108
 H         0.476812         2.800827        -1.053238
 H        -1.129952         3.291016        -0.411453
 H        -2.284901         0.553083         1.409140
 H        -2.944879         1.389507         0.147383
 H        -2.582472        -1.069261        -1.000560
 H        -1.143337        -1.802634         1.242307
 H        -0.239677        -1.946080        -0.223604
 H        -0.152850        -0.033705        -1.979516
 H        -1.321363         1.875082        -2.740829
