19
Iteration:  1505
 C        -0.164492         2.621614        -0.189938
 C        -0.697720         1.165885        -0.006990
 C        -2.032746         0.694929         0.643403
 C        -1.948808        -0.525886        -0.325615
 C        -0.664406        -1.217309         0.114178
 C         0.160829         0.025742         0.516920
 O         1.000978         0.226799         1.426627
 C        -1.351059         0.469465        -1.351047
 O        -2.266159         1.428080        -2.018998
 H        -0.785745         2.960444        -1.031781
 H        -0.401738         3.191044         0.706886
 H         0.993872         2.552472        -0.251216
 H        -2.043563         0.516827         1.702299
 H        -2.676076         1.474431         0.270781
 H        -2.725665        -1.243380        -0.640750
 H        -0.750878        -1.930477         0.993663
 H        -0.166051        -1.901206        -0.678338
 H        -0.707586         0.045442        -2.260272
 H        -2.595656         1.066830        -2.797513
