19
Iteration:  1432charge 0 multiplicity 1
 C        -0.100321         2.553891        -0.046934
 C        -0.733084         1.128989        -0.102158
 C        -2.067184         0.769733         0.678813
 C        -1.897506        -0.512645        -0.381272
 C        -0.687871        -1.183156         0.248198
 C         0.119605         0.118065         0.502579
 O         1.072672         0.217307         1.256720
 C        -1.320454         0.477800        -1.384116
 O        -2.390696         1.283115        -2.011478
 H         0.877867         2.500600        -0.446782
 H        -0.622941         3.370925        -0.531279
 H        -0.028901         2.597262         1.070870
 H        -2.000107         0.418650         1.705940
 H        -2.885068         1.439650         0.385723
 H        -2.777792        -1.177092        -0.665668
 H        -0.850490        -1.825624         1.144809
 H        -0.153204        -1.706460        -0.571177
 H        -0.615340         0.185354        -2.113741
 H        -2.102401         1.971991        -2.748109
