19
Iteration:   984charge 0 multiplicity 1
 C         0.001850         2.573750        -0.007878
 C        -0.697591         1.276773        -0.073912
 C        -2.103053         0.778678         0.797641
 C        -1.983314        -0.414123        -0.180207
 C        -0.742898        -1.130188         0.231987
 C         0.146722         0.087269         0.428163
 O         1.317578         0.104327         0.768558
 C        -1.453829         0.469495        -1.252685
 O        -2.462567         1.156772        -1.970292
 H        -0.316140         3.048762         0.851904
 H         1.065777         2.322500         0.004321
 H        -0.096880         3.276099        -0.873792
 H        -1.941750         0.787981         1.843841
 H        -2.897231         1.445480         0.616853
 H        -2.933414        -0.933371        -0.396177
 H        -0.809085        -1.622271         1.228847
 H        -0.292034        -1.938017        -0.508655
 H        -0.938486        -0.103739        -2.018407
 H        -3.014397         1.847219        -1.523206
