19
Iteration:   588
 C        -0.121292         2.552383        -0.231931
 C        -0.674595         1.114458        -0.115198
 C        -1.931238         0.704136         0.935266
 C        -2.030678        -0.449924        -0.019631
 C        -0.693840        -1.279591         0.045576
 C         0.270965        -0.003618         0.272024
 O         1.418831         0.071512         0.677829
 C        -1.598367         0.557833        -1.223336
 O        -2.571521         1.587448        -1.562606
 H         0.751740         2.797928         0.390824
 H         0.110359         2.754512        -1.299266
 H        -0.930896         3.151355         0.023789
 H        -1.664990         0.574697         2.065576
 H        -2.797052         1.389005         0.840260
 H        -2.981164        -0.941811        -0.115925
 H        -0.574476        -1.910398         0.928703
 H        -0.346965        -1.846751        -0.817036
 H        -1.258803        -0.079144        -2.078104
 H        -2.991504         1.240164        -2.403938
