19
Iteration:  4413
 C        -0.522856         2.708437         0.160766
 C        -0.856206         1.256901        -0.037027
 C        -2.315889         0.809201         0.330056
 C        -1.948574        -0.416153        -0.480945
 C        -1.085254        -1.103977         0.509074
 C        -0.129228         0.206789         0.771392
 O         0.995403         0.199721         1.337886
 C        -0.899263         0.379080        -1.324376
 O        -1.460880         0.877669        -2.477837
 H         0.534198         2.834917        -0.269947
 H        -1.260972         3.493746        -0.200109
 H        -0.355557         2.700771         1.347011
 H        -2.598095         0.765557         1.352379
 H        -2.912416         1.645184        -0.217227
 H        -2.731764        -1.034563        -0.988356
 H        -1.428658        -1.223622         1.565518
 H        -0.426322        -1.899195         0.119206
 H         0.066150        -0.276231        -1.575404
 H        -0.822124         1.673342        -2.719408
