19
Iteration:  2872
 C        -0.250670         2.604062        -0.018813
 C        -0.733040         1.226952        -0.137272
 C        -2.280822         0.784781         0.212132
 C        -1.875483        -0.470983        -0.530810
 C        -0.753015        -1.116506         0.349884
 C        -0.070229         0.157198         0.824537
 O         0.691252         0.313635         1.762601
 C        -0.998044         0.311001        -1.479774
 O        -1.731634         1.086267        -2.332833
 H         0.479513         2.509177         0.824437
 H         0.248172         2.973828        -0.940198
 H        -1.104037         3.258647         0.333907
 H        -2.446735         0.794306         1.266868
 H        -3.027096         1.432457        -0.225623
 H        -2.817790        -1.125866        -0.709678
 H        -1.073677        -1.739074         1.239783
 H        -0.027291        -1.803440        -0.192121
 H        -0.152506        -0.142092        -2.152857
 H        -2.373240         1.499042        -1.625056
