19
Iteration:  2818charge 0 multiplicity 1
 C        -0.313672         2.616407        -0.025673
 C        -0.860015         1.265569        -0.077017
 C        -2.380798         0.695713         0.411730
 C        -1.886680        -0.526351        -0.494856
 C        -0.883463        -1.111650         0.467594
 C        -0.049496         0.169046         0.739733
 O         0.845523         0.249118         1.576666
 C        -1.032373         0.408192        -1.316926
 O        -1.541261         1.135040        -2.529775
 H         0.148194         2.783897         1.008544
 H         0.550682         2.666301        -0.749080
 H        -1.136155         3.402918        -0.137860
 H        -2.359423         0.576463         1.469543
 H        -3.154677         1.403844         0.154400
 H        -2.524641        -1.301439        -1.005593
 H        -1.260574        -1.502716         1.456311
 H        -0.239027        -1.833685        -0.124953
 H        -0.039226        -0.018675        -1.780974
 H        -2.445528         1.486648        -2.169027
