19
Iteration:  2618
 C        -0.279394         2.593023        -0.094216
 C        -0.741784         1.194443        -0.099339
 C        -2.223069         0.815100         0.299084
 C        -1.889252        -0.519060        -0.477539
 C        -0.736176        -1.152503         0.390410
 C        -0.160254         0.162430         0.848822
 O         0.788133         0.264187         1.598150
 C        -1.060447         0.339174        -1.423506
 O        -1.755525         1.170683        -2.307443
 H        -0.671681         3.104574        -0.981148
 H        -0.577188         3.157072         0.822428
 H         0.859867         2.614574        -0.014916
 H        -2.498485         0.645269         1.283390
 H        -2.757355         1.545991        -0.202564
 H        -2.693453        -1.286167        -0.839350
 H        -1.084391        -1.780292         1.235041
 H         0.104110        -1.597477        -0.160724
 H        -0.062291        -0.032798        -1.852728
 H        -2.534362         1.492608        -1.929801
