19
Iteration:  1748
 C        -0.035772         2.500075        -0.126959
 C        -0.723436         1.220240        -0.200010
 C        -2.065296         0.767158         0.625043
 C        -1.884373        -0.475642        -0.391981
 C        -0.637159        -1.206703         0.169399
 C         0.095005         0.082174         0.550907
 O         0.801340         0.281604         1.509783
 C        -1.268055         0.527688        -1.348690
 O        -2.285232         1.158473        -2.079594
 H         0.455523         2.913963        -0.977754
 H        -0.726839         3.348802         0.208840
 H         0.777308         2.464299         0.690249
 H        -1.931628         0.606511         1.651172
 H        -2.935457         1.364698         0.421298
 H        -2.675657        -1.220453        -0.655192
 H        -0.876629        -1.861775         0.992670
 H        -0.159012        -1.845446        -0.576706
 H        -0.517589         0.209280        -2.096715
 H        -1.934164         2.010733        -2.534116
