19
Iteration:  2353
 C        -0.276102         2.614208        -0.000524
 C        -0.744230         1.160915        -0.103017
 C        -2.192096         0.761770         0.381013
 C        -1.882821        -0.531754        -0.461675
 C        -0.803731        -1.153501         0.372601
 C        -0.003891         0.074718         0.734172
 O         0.891745         0.325947         1.522007
 C        -1.098998         0.386251        -1.393273
 O        -1.888814         1.265286        -2.267092
 H        -0.803282         3.029130         0.886386
 H         0.800220         2.555735         0.098853
 H        -0.538890         3.143901        -0.904765
 H        -2.305892         0.731251         1.502347
 H        -3.038047         1.294823        -0.021477
 H        -2.777614        -1.193220        -0.687959
 H        -1.188324        -1.699671         1.202396
 H        -0.239371        -1.775010        -0.271393
 H        -0.258503         0.031424        -1.933666
 H        -2.149119         0.692869        -2.962750
