19
Iteration:   616
 C         0.046203         2.455029        -0.379235
 C        -0.729032         1.141709        -0.135418
 C        -1.789401         0.669211         0.957240
 C        -2.009774        -0.536013        -0.134152
 C        -0.621886        -1.191953         0.001796
 C         0.178857         0.028356         0.234896
 O         1.204778         0.135270         0.886967
 C        -1.604929         0.597164        -1.261094
 O        -2.637138         1.560784        -1.453607
 H         1.131030         2.299493        -0.581293
 H        -0.520098         2.882714        -1.267373
 H        -0.113621         3.244183         0.424674
 H        -1.324569         0.485503         1.885215
 H        -2.592342         1.338913         1.212955
 H        -2.930541        -1.164521        -0.279767
 H        -0.375508        -1.904087         0.856373
 H        -0.125250        -1.707975        -0.872113
 H        -1.137423         0.198668        -2.165447
 H        -3.224227         1.251252        -2.215183
