19
Iteration:  3535charge 0 multiplicity 1
 C        -0.352565         2.672241         0.097187
 C        -0.898274         1.195228         0.085559
 C        -2.321849         0.797485         0.216839
 C        -1.908041        -0.530646        -0.531849
 C        -0.871714        -1.059551         0.468339
 C        -0.124197         0.183191         0.785662
 O         0.873379         0.271758         1.502263
 C        -0.933527         0.297312        -1.407538
 O        -1.625972         1.014277        -2.439293
 H         0.588167         2.838756        -0.352250
 H        -1.093063         3.239624        -0.314589
 H        -0.339452         2.965448         1.163761
 H        -2.513918         0.978545         1.283755
 H        -2.878228         1.515599        -0.445082
 H        -2.702520        -1.315157        -1.066843
 H        -1.295584        -1.400562         1.462572
 H        -0.138130        -1.837425         0.080339
 H         0.082052        -0.164603        -1.723172
 H        -1.223469         1.944080        -2.336980
