19
Iteration:   607
 C        -0.022168         2.535929        -0.331418
 C        -0.712309         1.147570        -0.108265
 C        -1.773216         0.662278         0.919239
 C        -2.038949        -0.540039        -0.134891
 C        -0.657586        -1.201863         0.030771
 C         0.203130         0.038809         0.255447
 O         1.272404         0.121755         0.823852
 C        -1.709709         0.538810        -1.192898
 O        -2.567597         1.556253        -1.489719
 H         1.117335         2.327209        -0.268589
 H        -0.161808         2.804634        -1.479758
 H        -0.218586         3.388314         0.292645
 H        -1.385044         0.364111         1.806960
 H        -2.614037         1.299004         0.948032
 H        -2.821746        -1.312853        -0.175674
 H        -0.600688        -1.970184         0.883044
 H        -0.336093        -1.579280        -0.893756
 H        -1.060123         0.209789        -2.070463
 H        -3.154108         1.465473        -2.303831
