19
Iteration:  2471
 C        -0.466703         2.670547         0.102898
 C        -0.862626         1.228476         0.168830
 C        -2.338785         0.818892         0.344205
 C        -2.000651        -0.504246        -0.404706
 C        -0.978442        -1.212803         0.522151
 C        -0.008762         0.104779         0.768498
 O         1.147457         0.268965         1.172752
 C        -1.017257         0.373435        -1.349863
 O        -1.545148         1.132258        -2.429826
 H         0.553962         2.892574         0.554274
 H        -0.460863         2.952865        -0.959486
 H        -1.156540         3.330963         0.651480
 H        -2.896869         0.834341         1.227041
 H        -3.031260         1.362008        -0.337085
 H        -2.751944        -0.956748        -1.049281
 H        -1.447034        -1.845764         1.320883
 H        -0.260052        -1.985252         0.017496
 H        -0.011703        -0.038225        -1.526139
 H        -2.550678         1.296919        -2.284548
