19
Iteration:  4207charge 0 multiplicity 1
 C        -0.321356         2.546827         0.000657
 C        -0.877485         1.190676         0.066059
 C        -2.360013         0.821670         0.171598
 C        -1.920407        -0.520052        -0.488954
 C        -0.908209        -1.153137         0.494903
 C        -0.144419         0.118587         0.841719
 O         0.882870         0.355484         1.431952
 C        -0.945035         0.347796        -1.344772
 O        -1.587607         1.118720        -2.311834
 H         0.704116         2.526222        -0.360545
 H        -0.836605         3.375920        -0.440578
 H        -0.116476         2.782672         0.978422
 H        -2.961035         0.759902         1.198469
 H        -2.911731         1.565377        -0.627701
 H        -2.685139        -1.009970        -1.177792
 H        -1.291666        -1.433231         1.494712
 H        -0.342077        -1.990822         0.148793
 H         0.064223         0.076537        -1.682437
 H        -1.101915         1.542511        -3.008860
