19
Iteration:  1841charge 0 multiplicity 1
 C        -0.349178         2.619225         0.028353
 C        -0.840659         1.166949         0.060197
 C        -2.329634         0.711093         0.484612
 C        -2.003897        -0.469679        -0.360962
 C        -0.909997        -1.149193         0.526651
 C         0.114359         0.122630         0.696616
 O         1.265317         0.186468         1.057345
 C        -1.204177         0.404352        -1.428236
 O        -1.848294         1.300861        -2.197877
 H        -1.208010         3.401614         0.116661
 H         0.409229         2.962542         0.744081
 H         0.031249         2.969397        -0.944179
 H        -2.409471         0.376410         1.572637
 H        -3.214636         1.348016         0.222340
 H        -2.871983        -1.095519        -0.577494
 H        -1.437348        -1.703505         1.390426
 H        -0.286547        -1.958731        -0.037421
 H        -0.275496        -0.085305        -1.932914
 H        -1.596804         1.140199        -3.064164
