19
Iteration:  1633
 C        -0.360231         2.642452         0.296202
 C        -0.872688         1.165967         0.157183
 C        -2.308284         0.811950         0.595065
 C        -2.048026        -0.423270        -0.317960
 C        -0.825779        -1.152153         0.508808
 C         0.083995         0.084350         0.620625
 O         1.268671         0.198403         0.677364
 C        -1.177302         0.417678        -1.259009
 O        -1.891445         1.121979        -2.378501
 H         0.282096         2.761032         1.323098
 H         0.361628         2.704830        -0.547411
 H        -1.295624         3.233435         0.106911
 H        -2.765325         0.862089         1.715821
 H        -2.932299         1.436374        -0.112957
 H        -2.777062        -1.033998        -0.814018
 H        -1.173378        -1.425975         1.528722
 H        -0.383868        -2.084384         0.141864
 H        -0.290851        -0.189332        -1.633574
 H        -1.430580         2.053777        -2.394172
