19
Iteration:  4332
 C        -0.165230         2.573618        -0.059611
 C        -0.821061         1.166104        -0.066186
 C        -2.238047         0.690201         0.213554
 C        -1.857958        -0.529389        -0.531713
 C        -0.914014        -1.186354         0.476752
 C        -0.114723         0.115132         0.838128
 O         0.732707         0.406058         1.693877
 C        -0.975328         0.402117        -1.438044
 O        -1.780716         1.202255        -2.353427
 H         0.855677         2.458568        -0.398227
 H        -0.659816         3.287091        -0.706155
 H        -0.153316         3.043180         0.947952
 H        -2.396897         0.693933         1.414329
 H        -2.996395         1.286111        -0.184315
 H        -2.605491        -1.260782        -0.746586
 H        -1.441651        -1.683849         1.326133
 H        -0.207941        -1.939737        -0.012739
 H         0.013553         0.115793        -1.923090
 H        -1.091143         1.507175        -3.018118
