19
Iteration:   419
 C        -0.187254         2.633027        -0.146455
 C        -0.628846         1.229587        -0.089531
 C        -1.806579         0.720361         0.958184
 C        -2.001788        -0.379365        -0.048943
 C        -0.712568        -1.204746         0.112508
 C         0.250238         0.022208         0.179113
 O         1.432883        -0.087058         0.438040
 C        -1.638618         0.523047        -1.186027
 O        -2.648815         1.407936        -1.449081
 H         0.842925         2.900574        -0.358558
 H        -0.743698         3.023726        -0.987003
 H        -0.609341         3.235786         0.724200
 H        -1.660549         0.492534         1.981712
 H        -2.611785         1.422226         0.772451
 H        -2.986412        -0.961704         0.018117
 H        -0.664780        -1.799208         1.035961
 H        -0.426422        -1.874243        -0.750771
 H        -1.153289         0.018272        -2.087750
 H        -2.305632         1.886027        -2.192407
