19
Iteration:  2411
 C        -0.350445         2.680328         0.160283
 C        -0.876987         1.165580         0.053100
 C        -2.374123         0.774360         0.378074
 C        -1.938314        -0.470709        -0.489776
 C        -0.926559        -1.155159         0.587311
 C        -0.062825         0.096925         0.815757
 O         1.100501         0.245680         1.133112
 C        -1.014183         0.485742        -1.314570
 O        -1.625143         1.111175        -2.469570
 H         0.196708         2.903951         1.037827
 H         0.340300         3.045711        -0.625353
 H        -1.207669         3.339630         0.118606
 H        -2.533634         0.485523         1.539611
 H        -3.262296         1.197949        -0.124687
 H        -2.690140        -0.998974        -1.043685
 H        -1.572378        -1.405144         1.428482
 H        -0.295685        -1.958501         0.297517
 H        -0.075393         0.251709        -1.713478
 H        -2.444278         0.518454        -2.494904
