19
Iteration:   479charge 0 multiplicity 1
 C        -0.025896         2.642228         0.199391
 C        -0.828802         1.175796         0.095658
 C        -1.991674         0.763669         0.955517
 C        -2.082529        -0.487549        -0.006558
 C        -0.769888        -1.174400         0.376017
 C         0.173083         0.059399         0.220914
 O         1.372611         0.104857        -0.099755
 C        -1.563025         0.463337        -1.154870
 O        -2.344788         1.336422        -1.730685
 H        -0.222445         3.236691        -0.715431
 H        -0.269721         3.334214         1.053086
 H         1.021280         2.456145         0.156564
 H        -1.907602         0.554272         2.123826
 H        -2.871650         1.457711         0.857336
 H        -2.974247        -1.073637         0.032544
 H        -0.791784        -1.522227         1.440816
 H        -0.363489        -2.009716        -0.194836
 H        -0.828156         0.120402        -1.826139
 H        -2.651059         1.090103        -2.575751
