19
Iteration:  2594charge 0 multiplicity 1
 C        -0.195449         2.618272        -0.111247
 C        -0.725558         1.247378        -0.015010
 C        -2.264667         0.746760         0.366557
 C        -1.912478        -0.483148        -0.509685
 C        -0.784750        -1.160293         0.284701
 C         0.034675         0.098016         0.800791
 O         0.793120         0.287999         1.774552
 C        -1.075281         0.463241        -1.370447
 O        -1.843309         1.105631        -2.467247
 H        -0.252444         2.895915        -1.171112
 H        -0.746860         3.399575         0.483668
 H         0.815313         2.681757         0.280386
 H        -2.360922         0.490104         1.331022
 H        -3.051628         1.347026         0.013166
 H        -2.789296        -1.178354        -0.810347
 H        -1.185565        -1.698262         1.187214
 H        -0.067778        -1.818437        -0.260550
 H        -0.167099        -0.019637        -1.800604
 H        -2.783096         1.255040        -2.179852
