19
Iteration:  1239
 C        -0.141658         2.660690        -0.211871
 C        -0.616660         1.209997        -0.077293
 C        -2.046225         0.638836         0.634553
 C        -2.022511        -0.532385        -0.301600
 C        -0.696483        -1.191396         0.268721
 C         0.120610         0.058253         0.522741
 O         1.128330         0.164781         1.170360
 C        -1.399943         0.491970        -1.326819
 O        -2.281424         1.339563        -1.984426
 H        -0.941665         3.355751         0.182051
 H         0.783519         2.827083         0.347465
 H        -0.125808         3.013245        -1.217538
 H        -1.999581         0.443293         1.706639
 H        -2.895360         1.349920         0.582811
 H        -2.903724        -1.123875        -0.402902
 H        -0.628541        -1.955291         1.133126
 H        -0.171210        -1.817182        -0.621675
 H        -0.593884         0.157577        -2.074999
 H        -2.917202         1.661628        -1.383396
