19
Iteration:  2997
 C        -0.488864         2.701313         0.116690
 C        -0.915145         1.206875        -0.002117
 C        -2.337081         0.768197         0.351800
 C        -1.849263        -0.493302        -0.517394
 C        -1.036378        -1.055093         0.618566
 C        -0.128929         0.144514         0.804969
 O         0.947051         0.208422         1.297125
 C        -0.826560         0.415132        -1.361620
 O        -1.444293         1.004760        -2.504148
 H         0.622109         2.689881         0.377848
 H        -0.856966         3.235254        -0.856467
 H        -1.081657         3.337587         0.828068
 H        -2.492205         0.752510         1.474800
 H        -3.122779         1.305010        -0.209656
 H        -2.529656        -1.195441        -0.916707
 H        -1.716836        -1.554773         1.326131
 H        -0.354123        -1.882595         0.288662
 H         0.196864         0.023620        -1.674555
 H        -2.181972         1.632294        -2.136387
