19
Iteration:   575charge 0 multiplicity 1
 C        -0.249380         2.535277        -0.139320
 C        -0.661488         1.148651        -0.022273
 C        -1.901056         0.816229         0.923308
 C        -2.040179        -0.453275        -0.081077
 C        -0.679477        -1.223119         0.171470
 C         0.264616        -0.072818         0.204705
 O         1.445528         0.004176         0.550724
 C        -1.580388         0.578623        -1.183373
 O        -2.547291         1.518540        -1.616202
 H         0.351961         2.885268         0.753751
 H         0.428886         2.663971        -1.076279
 H        -1.059940         3.181020        -0.277711
 H        -1.699913         0.655011         1.966678
 H        -2.656611         1.584978         0.792220
 H        -2.901509        -1.114882        -0.193250
 H        -0.625562        -1.951524         1.039669
 H        -0.538954        -1.804482        -0.680237
 H        -0.911778         0.396741        -2.088072
 H        -3.064771         1.200643        -2.343900
