19
Iteration:   636
 C         0.059534         2.517531        -0.401677
 C        -0.645050         1.148874        -0.194603
 C        -1.796217         0.682246         0.854466
 C        -1.901682        -0.415735        -0.156616
 C        -0.639789        -1.293010        -0.029173
 C         0.255265        -0.002888         0.266222
 O         1.208921         0.149783         1.003087
 C        -1.664782         0.634375        -1.207369
 O        -2.747238         1.500693        -1.451448
 H         0.811184         2.256621        -1.115682
 H        -0.536855         3.310161        -0.800649
 H         0.654911         2.781185         0.551876
 H        -1.627556         0.390233         1.980673
 H        -2.724690         1.304911         0.753845
 H        -2.779392        -1.102830        -0.246611
 H        -0.693978        -2.056197         0.770807
 H        -0.406952        -1.845279        -1.037353
 H        -1.107551         0.295357        -2.059133
 H        -3.470098         1.027840        -1.856619
