19
Iteration:  4525charge 0 multiplicity 1
 C        -0.289625         2.563136        -0.065890
 C        -0.720709         1.184709        -0.070772
 C        -2.262866         0.789378         0.290980
 C        -1.900378        -0.465191        -0.483037
 C        -0.843565        -1.111409         0.431902
 C        -0.039328         0.141129         0.763639
 O         0.747339         0.236233         1.772050
 C        -1.036993         0.398377        -1.437096
 O        -1.749322         1.115752        -2.412532
 H         0.750898         2.765472         0.410014
 H        -0.169371         3.014680        -1.121032
 H        -1.071534         3.210437         0.325577
 H        -2.569939         0.704648         1.270107
 H        -2.891672         1.366978        -0.253021
 H        -2.753578        -1.088383        -0.674989
 H        -1.177327        -1.481477         1.377248
 H        -0.086593        -1.691532        -0.043009
 H        -0.168559        -0.158038        -1.935119
 H        -1.191682         1.731601        -2.921674
