19
Iteration:   442
 C        -0.218089         2.616920        -0.046343
 C        -0.725692         1.219847         0.069712
 C        -1.893507         0.758563         0.990020
 C        -2.087516        -0.422408        -0.043224
 C        -0.712712        -1.211180         0.239749
 C         0.286304        -0.061381         0.240914
 O         1.529141        -0.043675         0.208491
 C        -1.546296         0.620223        -1.132106
 O        -2.616962         1.422351        -1.656818
 H         0.505410         2.612127        -0.868515
 H        -1.043920         3.295847        -0.323868
 H         0.257992         2.922301         0.887603
 H        -1.708889         0.562082         2.040425
 H        -2.621384         1.581314         0.875543
 H        -2.914184        -1.193450        -0.000528
 H        -0.951418        -1.759997         1.179600
 H        -0.386265        -1.912869        -0.534719
 H        -0.950295         0.167565        -1.964614
 H        -2.488880         1.432079        -2.626987
