19
Iteration:  3011
 C        -0.468002         2.742855         0.108315
 C        -0.935655         1.340820         0.012784
 C        -2.367937         0.778951         0.207072
 C        -1.883800        -0.519850        -0.450481
 C        -0.991375        -1.243950         0.602503
 C        -0.151962         0.141510         0.844600
 O         0.995373         0.227288         1.251369
 C        -0.915889         0.454724        -1.264117
 O        -1.388594         0.986487        -2.490682
 H         0.630957         2.771053         0.073657
 H        -0.697678         3.406506        -0.730786
 H        -0.743596         3.132186         1.149536
 H        -2.783852         0.583515         1.276485
 H        -3.269544         1.438549        -0.224230
 H        -2.619764        -1.106197        -1.112947
 H        -1.488948        -1.382656         1.581303
 H        -0.410213        -2.103672         0.314845
 H         0.023890         0.107330        -1.587050
 H        -2.231945         1.398825        -2.319719
