19
Iteration:   246charge 0 multiplicity 1
 C        -0.210909         2.563420         0.068721
 C        -0.742849         1.162707         0.150989
 C        -1.917066         0.740460         1.060552
 C        -2.111872        -0.442413         0.014528
 C        -0.680811        -1.194131         0.277058
 C         0.303565         0.036521         0.151292
 O         1.454379        -0.016961        -0.197577
 C        -1.596990         0.547065        -1.063673
 O        -2.441547         1.483895        -1.629145
 H         0.807374         2.465501        -0.321213
 H        -0.826145         3.240998        -0.594171
 H        -0.090557         3.021253         1.046570
 H        -1.753909         0.409603         2.161220
 H        -2.786724         1.440515         1.180907
 H        -3.164719        -0.845746        -0.107502
 H        -0.634253        -1.740003         1.214893
 H        -0.444185        -1.799594        -0.581111
 H        -0.886734         0.183082        -1.805793
 H        -3.411584         1.204878        -1.583809
