19
Iteration:  2937
 C        -0.289992         2.606229        -0.032806
 C        -0.848074         1.187120         0.009857
 C        -2.310974         0.768100         0.312147
 C        -1.924870        -0.498971        -0.554481
 C        -0.712070        -1.144736         0.421365
 C        -0.167641         0.182465         0.818362
 O         0.768778         0.310481         1.566523
 C        -1.023656         0.396559        -1.342967
 O        -1.585171         1.078982        -2.415337
 H         0.586330         2.688444         0.564881
 H         0.125552         2.830189        -0.959582
 H        -0.943686         3.345116         0.431749
 H        -2.555045         0.708313         1.339541
 H        -2.849456         1.490397        -0.284248
 H        -2.807098        -1.212741        -0.816470
 H        -1.167117        -1.782517         1.198304
 H        -0.005545        -1.646341        -0.247315
 H        -0.021843         0.013838        -1.743343
 H        -2.447043         1.384881        -2.146588
