19
Iteration:  2662
 C        -0.346049         2.540662         0.041316
 C        -0.852162         1.196469         0.061858
 C        -2.326304         0.733519         0.376308
 C        -1.946516        -0.509726        -0.553501
 C        -0.890203        -1.069451         0.507892
 C        -0.089421         0.161130         0.857716
 O         0.979881         0.308773         1.423721
 C        -1.012579         0.437964        -1.380979
 O        -1.609944         1.092853        -2.517223
 H        -1.132824         3.282566        -0.159469
 H         0.022505         2.812828         1.045552
 H         0.508898         2.809823        -0.635056
 H        -2.412827         0.494540         1.361263
 H        -3.076238         1.371128         0.040660
 H        -2.690303        -1.196421        -1.112569
 H        -1.411279        -1.579628         1.327566
 H        -0.229888        -1.886460         0.172894
 H        -0.127534        -0.132117        -1.807400
 H        -2.277269         1.724126        -2.338663
