19
Iteration:  4605charge 0 multiplicity 1
 C        -0.119334         2.605801         0.030728
 C        -0.786913         1.198128        -0.169077
 C        -2.306222         0.732211         0.122781
 C        -1.835165        -0.572398        -0.486122
 C        -0.853979        -1.176140         0.526976
 C        -0.137598         0.128925         0.870596
 O         0.767721         0.383542         1.694175
 C        -0.974834         0.387665        -1.449250
 O        -1.855423         1.194997        -2.368783
 H         1.039348         2.642054         0.020237
 H        -0.535151         3.258895        -0.790395
 H        -0.377530         2.890387         1.108587
 H        -2.492078         0.629271         1.185584
 H        -3.093772         1.318228        -0.412026
 H        -2.464211        -1.413563        -0.911921
 H        -1.332924        -1.507818         1.495712
 H        -0.218832        -2.046868         0.165272
 H        -0.144143        -0.182895        -1.991673
 H        -1.295765         1.525331        -3.095061
