19
Iteration:  4530
 C        -0.285594         2.596959        -0.063604
 C        -0.692688         1.184633        -0.066497
 C        -2.244036         0.797673         0.246874
 C        -1.914209        -0.476793        -0.434877
 C        -0.778159        -1.112877         0.412584
 C        -0.049873         0.162722         0.764954
 O         0.700684         0.215777         1.765253
 C        -1.086770         0.426252        -1.429401
 O        -1.739937         1.076369        -2.406514
 H         0.696047         2.760818         0.371375
 H        -0.102008         2.831711        -1.114890
 H        -0.978945         3.299479         0.449828
 H        -2.366777         0.781746         1.438044
 H        -2.982654         1.418447        -0.465360
 H        -2.793705        -1.132400        -0.683380
 H        -1.177300        -1.534215         1.382087
 H        -0.166011        -1.812868        -0.300629
 H        -0.143766        -0.006637        -1.803128
 H        -1.224711         1.783471        -2.831148
