19
Iteration:  4054charge 0 multiplicity 1
 C        -0.223682         2.608750        -0.035921
 C        -0.717023         1.232902        -0.109025
 C        -2.253159         0.768702         0.245425
 C        -1.898971        -0.509756        -0.535551
 C        -0.886378        -1.174557         0.424521
 C        -0.156706         0.120572         0.904966
 O         0.764317         0.331248         1.674638
 C        -0.975519         0.397963        -1.428101
 O        -1.760730         1.080906        -2.330750
 H         0.833988         2.561689         0.387300
 H        -0.143599         3.020552        -1.094758
 H        -0.851982         3.367519         0.454542
 H        -2.531928         0.727435         1.337805
 H        -3.056045         1.466987        -0.229775
 H        -2.673522        -1.165371        -0.996190
 H        -1.283056        -1.831590         1.230593
 H        -0.190969        -1.727047        -0.194803
 H        -0.125442        -0.094319        -2.000593
 H        -1.181037         1.755441        -2.647910
