19
Iteration:  1374
 C        -0.401382         2.667399         0.100557
 C        -0.858349         1.270512         0.130584
 C        -2.229871         0.764845         0.589830
 C        -1.971222        -0.448094        -0.274320
 C        -0.811128        -1.148259         0.418832
 C         0.108883         0.038086         0.593361
 O         1.313280         0.057537         0.643153
 C        -1.230198         0.425230        -1.208067
 O        -1.951706         1.229401        -2.141327
 H         0.524426         2.856240         0.599908
 H        -0.392871         3.014362        -0.938450
 H        -1.168127         3.352496         0.551667
 H        -2.329641         0.555141         1.657502
 H        -3.156193         1.299333         0.378586
 H        -2.817915        -1.064118        -0.576992
 H        -1.037591        -1.644476         1.422176
 H        -0.297200        -1.970698        -0.303424
 H        -0.463143         0.205546        -1.930051
 H        -2.389500         1.973852        -1.787704
