19
Iteration:  3900
 C        -0.455928         2.718864         0.125526
 C        -0.907754         1.273457         0.067093
 C        -2.302294         0.801108         0.248740
 C        -1.906912        -0.481101        -0.420851
 C        -1.001980        -1.109387         0.554196
 C        -0.151025         0.186060         0.822466
 O         0.950743         0.131965         1.360742
 C        -0.972022         0.414252        -1.406050
 O        -1.435213         0.965293        -2.484203
 H         0.116798         2.914859        -0.883437
 H        -1.440466         3.428453         0.038141
 H         0.173962         2.994474         0.968136
 H        -2.713505         0.744123         1.196759
 H        -2.937287         1.440648        -0.395707
 H        -2.583929        -1.162980        -0.828035
 H        -1.467778        -1.391765         1.499805
 H        -0.425603        -1.944509         0.158881
 H        -0.033367        -0.086550        -1.544670
 H        -1.030150         1.868974        -2.798897
