19
Iteration:  3077charge 0 multiplicity 1
 C        -0.371959         2.705553         0.077354
 C        -0.800449         1.262193        -0.005588
 C        -2.338926         0.706426         0.268636
 C        -1.922656        -0.567025        -0.417576
 C        -0.996359        -1.198925         0.557050
 C        -0.101014         0.188459         0.755753
 O         0.859548         0.306215         1.464345
 C        -0.900099         0.477023        -1.372998
 O        -1.485848         1.013433        -2.539042
 H         0.367668         3.011289        -0.699893
 H        -1.151469         3.444635        -0.067920
 H         0.223728         2.634512         1.109971
 H        -2.736003         0.484615         1.337408
 H        -3.122607         1.366504        -0.365053
 H        -2.742009        -1.285009        -0.839260
 H        -1.350605        -1.335326         1.588929
 H        -0.572126        -2.092783         0.141026
 H        -0.026078        -0.011761        -1.615452
 H        -2.155598         1.794310        -2.421765
