19
Iteration:  1882
 C        -0.391592         2.749526         0.135920
 C        -0.885064         1.290844         0.121578
 C        -2.360264         0.819657         0.473246
 C        -1.997749        -0.495350        -0.341140
 C        -0.919554        -1.211745         0.498691
 C        -0.014362         0.021757         0.661294
 O         1.190617         0.227353         0.804109
 C        -1.042886         0.400363        -1.229362
 O        -1.698860         1.162521        -2.204553
 H        -0.888848         3.227629         1.065393
 H         0.649314         2.630423         0.255918
 H        -0.802934         3.129049        -0.764630
 H        -2.651109         0.657669         1.429214
 H        -3.123112         1.378897        -0.010790
 H        -2.734224        -1.229529        -0.695528
 H        -1.158812        -1.702192         1.466962
 H        -0.435422        -1.919377        -0.212529
 H        -0.120457        -0.056884        -1.522586
 H        -1.728430         0.764511        -3.125480
