19
Iteration:  2119
 C        -0.417726         2.657892         0.137536
 C        -0.922686         1.289437        -0.008779
 C        -2.282003         0.818747         0.384111
 C        -1.969005        -0.470928        -0.356713
 C        -0.846236        -1.160988         0.435978
 C        -0.021751         0.121982         0.618746
 O         1.093693         0.180508         1.066263
 C        -1.074719         0.362126        -1.270963
 O        -1.692194         1.160326        -2.170610
 H         0.215979         2.928839        -0.675466
 H        -1.075702         3.604856         0.330167
 H         0.276591         2.605918         1.037830
 H        -2.572064         0.827342         1.479458
 H        -3.098447         1.314965        -0.163411
 H        -2.715009        -1.170221        -0.772845
 H        -1.110570        -1.475513         1.444982
 H        -0.219439        -1.871797        -0.158900
 H        -0.299111        -0.205970        -1.785894
 H        -1.885221         0.585236        -3.018206
