19
Iteration:  2805
 C        -0.286989         2.688519         0.041721
 C        -0.807052         1.203590         0.032580
 C        -2.331736         0.698657         0.323373
 C        -2.012688        -0.548126        -0.502715
 C        -0.895441        -1.140736         0.424397
 C        -0.097584         0.211220         0.809892
 O         0.923982         0.309777         1.481163
 C        -1.068532         0.379838        -1.390153
 O        -1.503246         1.103745        -2.429913
 H        -0.070641         3.010645         1.072706
 H         0.585815         2.880541        -0.579950
 H        -1.091156         3.377289        -0.400240
 H        -2.583511         0.415309         1.326831
 H        -3.114419         1.342659        -0.159851
 H        -2.909891        -1.211854        -0.866345
 H        -1.381057        -1.655837         1.306258
 H        -0.129824        -1.907137         0.079515
 H        -0.138415        -0.209415        -1.762238
 H        -2.361628         1.440804        -2.375822
