19
Iteration:  2318charge 0 multiplicity 1
 C        -0.146468         2.665690        -0.222884
 C        -0.702315         1.217468        -0.146809
 C        -2.206449         0.629209         0.484435
 C        -1.888724        -0.556801        -0.448103
 C        -0.745657        -1.155341         0.316740
 C         0.020768         0.067976         0.730771
 O         0.779734         0.275913         1.676038
 C        -1.162580         0.419200        -1.357479
 O        -1.990722         1.292993        -2.225694
 H        -0.828783         3.476221         0.196841
 H         0.745661         2.949273         0.313084
 H        -0.041226         3.053966        -1.274688
 H        -2.186183         0.447968         1.492420
 H        -3.075684         1.194561         0.084055
 H        -2.685825        -1.335260        -0.786365
 H        -1.024930        -1.822173         1.128447
 H        -0.138501        -1.816303        -0.346618
 H        -0.327700        -0.018991        -1.894672
 H        -1.571046         1.336752        -3.049582
