19
Iteration:  3568
 C        -0.402354         2.678304         0.076582
 C        -0.994467         1.217748         0.001810
 C        -2.447397         0.770046         0.188393
 C        -1.867041        -0.546060        -0.500381
 C        -1.000923        -1.177413         0.633353
 C        -0.084375         0.125426         0.892948
 O         1.008916         0.284429         1.303586
 C        -0.902786         0.362411        -1.335236
 O        -1.445037         1.104036        -2.456224
 H         0.589142         2.743728        -0.326035
 H        -0.992383         3.347725        -0.463877
 H        -0.394562         3.107424         1.155995
 H        -2.782077         0.865296         1.226946
 H        -3.153506         1.357647        -0.449335
 H        -2.612476        -1.285374        -1.140613
 H        -1.572444        -1.339095         1.588574
 H        -0.453775        -2.101198         0.265021
 H         0.251291         0.179264        -1.494820
 H        -1.970984         1.750080        -2.086765
