19
Iteration:  4797charge 0 multiplicity 1
 C        -0.325575         2.685011        -0.031960
 C        -0.735580         1.149151        -0.080335
 C        -2.295956         0.868953         0.273419
 C        -1.909876        -0.439062        -0.449369
 C        -0.788605        -1.088960         0.362371
 C        -0.090907         0.091539         0.801439
 O         0.743432         0.248603         1.660976
 C        -1.069897         0.317008        -1.373932
 O        -1.663090         1.050177        -2.373091
 H         0.513699         2.782197         0.625048
 H        -0.014341         3.085243        -0.965805
 H        -1.096590         3.333798         0.223128
 H        -2.541831         0.786385         1.298337
 H        -2.995922         1.524167        -0.132980
 H        -2.611933        -1.217647        -0.816316
 H        -1.184387        -1.779171         1.167262
 H         0.010357        -1.685885        -0.108177
 H        -0.185227        -0.223462        -1.824455
 H        -1.065081         1.618189        -2.751734
