19
Iteration:  4934
 C        -0.437063         2.769881         0.093236
 C        -0.891857         1.254538         0.043910
 C        -2.294606         0.805926         0.337106
 C        -1.937963        -0.444154        -0.398825
 C        -0.945795        -1.132988         0.464444
 C        -0.025151         0.088733         0.745695
 O         0.943126         0.167800         1.388359
 C        -0.988800         0.384469        -1.343864
 O        -1.616560         0.982365        -2.476936
 H        -1.123638         3.460700         0.536937
 H         0.427471         2.741335         0.706567
 H        -0.020631         3.209874        -0.794242
 H        -2.452295         0.861794         1.533242
 H        -3.064702         1.406932        -0.187632
 H        -2.737037        -0.979487        -0.940644
 H        -1.186179        -1.668980         1.338929
 H        -0.367952        -1.881324        -0.063468
 H         0.011935         0.115480        -1.735129
 H        -0.934149         1.615330        -2.948448
