19
Iteration:   458charge 0 multiplicity 1
 C        -0.154558         2.560398         0.039885
 C        -0.708961         1.170041         0.111628
 C        -1.964775         0.743826         0.992013
 C        -1.964721        -0.414182         0.007377
 C        -0.715425        -1.188250         0.326255
 C         0.210741         0.044997         0.223287
 O         1.419078        -0.010188         0.067526
 C        -1.567334         0.580590        -1.099576
 O        -2.535917         1.416260        -1.756045
 H         0.181580         2.800273        -0.990203
 H        -0.964559         3.214298         0.400091
 H         0.751863         2.574981         0.706436
 H        -1.837159         0.495809         2.111359
 H        -2.900610         1.318668         0.870303
 H        -2.913583        -0.788916        -0.271885
 H        -0.613395        -1.506537         1.369019
 H        -0.488041        -1.951825        -0.447776
 H        -0.951013         0.199658        -1.900503
 H        -2.493293         1.191729        -2.732322
