19
Iteration:  1645
 C        -0.387322         2.544489         0.198260
 C        -0.874770         1.207716         0.132508
 C        -2.282897         0.818203         0.574542
 C        -1.982946        -0.454796        -0.276280
 C        -0.852533        -1.115614         0.460971
 C         0.031418         0.084428         0.585693
 O         1.233583         0.178553         0.769239
 C        -1.157436         0.437863        -1.295286
 O        -1.848265         1.129109        -2.301195
 H         0.404067         2.853095         1.002164
 H         0.116347         2.860787        -0.738798
 H        -1.130122         3.430581         0.374837
 H        -2.390745         0.685587         1.756014
 H        -3.160420         1.414028         0.191586
 H        -2.789702        -1.112929        -0.564031
 H        -1.183604        -1.447684         1.450411
 H        -0.371400        -1.868073        -0.117127
 H        -0.303043        -0.108433        -1.795924
 H        -1.746897         2.106948        -2.302778
