19
Iteration:  4806
 C        -0.298260         2.711778        -0.085689
 C        -0.784442         1.210246        -0.072833
 C        -2.230076         0.851532         0.309932
 C        -1.993398        -0.479509        -0.438568
 C        -0.723585        -1.147772         0.353882
 C        -0.051774         0.101917         0.797835
 O         0.704440         0.234982         1.747512
 C        -1.049688         0.324995        -1.414203
 O        -1.680422         1.088771        -2.406603
 H         0.472321         2.898599         0.700022
 H         0.044547         2.958549        -1.107597
 H        -1.258598         3.247496         0.185471
 H        -2.392849         0.746655         1.302695
 H        -2.895265         1.435797        -0.195957
 H        -2.704266        -1.144846        -0.775292
 H        -0.913758        -1.695311         1.339057
 H        -0.317651        -1.777198        -0.464905
 H        -0.282407        -0.400009        -1.805441
 H        -1.044213         1.682251        -2.694414
