19
Iteration:  2062charge 0 multiplicity 1
 C        -0.163686         2.560741        -0.021175
 C        -0.789281         1.228795        -0.134653
 C        -2.179951         0.736605         0.450022
 C        -1.885125        -0.584502        -0.426213
 C        -0.730242        -1.142133         0.340258
 C         0.059923         0.117903         0.660220
 O         0.887308         0.237182         1.538526
 C        -1.149185         0.457576        -1.487511
 O        -2.043375         1.303383        -2.199967
 H         0.905953         2.652894        -0.291803
 H        -0.697215         3.340417        -0.714263
 H        -0.282630         3.006158         1.016634
 H        -2.226705         0.598229         1.511850
 H        -3.023334         1.296587         0.119143
 H        -2.675636        -1.220639        -0.826639
 H        -0.921637        -1.592010         1.361690
 H        -0.050171        -1.884192        -0.231530
 H        -0.343177         0.034086        -2.086683
 H        -2.618491         0.640705        -2.510373
