19
Iteration:  4193charge 0 multiplicity 1
 C        -0.340421         2.641911         0.039876
 C        -0.927488         1.216892         0.045019
 C        -2.440874         0.826814         0.216285
 C        -1.946094        -0.491751        -0.564818
 C        -0.951998        -1.145692         0.546883
 C        -0.095803         0.136406         0.807708
 O         0.955160         0.271764         1.367887
 C        -0.922348         0.406061        -1.247160
 O        -1.529005         1.060494        -2.365564
 H         0.559342         2.677679        -0.550382
 H        -1.108554         3.319206        -0.420647
 H        -0.100367         2.982050         1.136545
 H        -2.856082         0.772084         1.206790
 H        -3.159357         1.388452        -0.454291
 H        -2.522151        -1.290979        -0.937148
 H        -1.541296        -1.516068         1.387649
 H        -0.322872        -1.960755         0.175168
 H        -0.074467        -0.166288        -1.560266
 H        -0.665411         1.403603        -2.813517
