19
Iteration:  4875
 C        -0.076635         2.602683        -0.030749
 C        -0.733212         1.165879        -0.037088
 C        -2.298534         0.788119         0.152774
 C        -1.803146        -0.571094        -0.503954
 C        -0.740046        -1.185640         0.428159
 C        -0.096278         0.130035         0.824146
 O         0.690160         0.361234         1.702353
 C        -1.048698         0.383639        -1.438189
 O        -1.963206         1.146973        -2.308896
 H        -0.302545         3.028260         0.937629
 H         1.000878         2.473377        -0.046945
 H        -0.432216         3.233084        -0.790129
 H        -2.613231         0.829764         1.114482
 H        -2.985368         1.274549        -0.520708
 H        -2.634384        -1.191064        -1.042229
 H        -1.232718        -1.588812         1.332884
 H         0.044746        -1.820883        -0.012544
 H        -0.076674         0.119584        -1.952797
 H        -1.333188         1.759221        -2.711686
