19
Iteration:  2569charge 0 multiplicity 1
 C        -0.160939         2.671513        -0.025200
 C        -0.778075         1.281333        -0.088981
 C        -2.196135         0.772083         0.480521
 C        -1.813805        -0.564533        -0.457589
 C        -0.767231        -1.165433         0.399285
 C        -0.086242         0.126480         0.697579
 O         0.675651         0.244245         1.611424
 C        -1.047224         0.425102        -1.421763
 O        -1.821635         1.118757        -2.473551
 H         0.178598         2.973989        -1.039314
 H        -0.871418         3.404761         0.341453
 H         0.655031         2.705399         0.679787
 H        -2.148660         0.701641         1.628540
 H        -3.126406         1.254236         0.041603
 H        -2.654502        -1.155784        -0.772100
 H        -1.067130        -1.718944         1.311626
 H         0.062193        -1.736716        -0.121078
 H        -0.215648        -0.119896        -1.814985
 H        -2.760896         1.337752        -2.139749
