19
Iteration:   293
 C        -0.244830         2.648525        -0.109200
 C        -0.689571         1.201649        -0.084551
 C        -1.709390         0.686923         0.965928
 C        -2.001431        -0.452214        -0.024809
 C        -0.754746        -1.236103         0.094483
 C         0.304286         0.027523         0.124049
 O         1.521984        -0.114010         0.318937
 C        -1.661915         0.564927        -1.161272
 O        -2.713824         1.522917        -1.386613
 H        -0.384979         3.155359        -1.086681
 H        -0.799201         3.278384         0.709560
 H         0.845203         2.634785         0.056603
 H        -1.338114         0.547262         2.022333
 H        -2.484621         1.450546         1.140317
 H        -2.898105        -1.002729        -0.084284
 H        -0.819922        -1.711511         1.147887
 H        -0.516388        -1.901237        -0.734587
 H        -1.258914         0.047569        -2.090897
 H        -2.662843         1.674260        -2.332525
