19
Iteration:  4325charge 0 multiplicity 1
 C        -0.177421         2.507909        -0.077637
 C        -0.770419         1.176648        -0.091006
 C        -2.291502         0.727283         0.268821
 C        -1.857625        -0.556399        -0.476907
 C        -0.863205        -1.181238         0.465685
 C        -0.067469         0.121088         0.852549
 O         0.689263         0.378520         1.730656
 C        -0.975069         0.455999        -1.467784
 O        -1.798112         1.198813        -2.381801
 H         0.928398         2.630348        -0.253105
 H        -0.662828         3.190710        -0.829110
 H        -0.169728         3.057680         0.989132
 H        -2.403464         0.702645         1.271284
 H        -3.088005         1.300448        -0.278556
 H        -2.703244        -1.054097        -1.016735
 H        -1.160426        -1.664893         1.418361
 H        -0.230508        -1.934967        -0.029744
 H        -0.148499         0.036864        -2.128663
 H        -1.076146         1.497808        -3.063783
