19
Iteration:   140
 C        -0.240802         2.587627        -0.047618
 C        -0.706359         1.186665         0.022326
 C        -1.727615         0.675972         1.027638
 C        -1.984483        -0.448682        -0.049938
 C        -0.655218        -1.220314         0.000316
 C         0.264492        -0.014634         0.083188
 O         1.505432        -0.058361         0.140966
 C        -1.653536         0.675531        -1.063043
 O        -2.700794         1.557776        -1.386358
 H        -1.009813         3.267284         0.315414
 H         0.577696         2.482565         0.800533
 H         0.233177         2.834200        -1.000702
 H        -1.476278         0.400050         2.041430
 H        -2.563267         1.358950         0.998133
 H        -2.923536        -0.951156        -0.054649
 H        -0.594521        -2.016942         0.879405
 H        -0.536434        -1.818244        -0.904907
 H        -1.133030         0.226857        -1.966673
 H        -3.480366         0.941336        -1.544086
