19
Iteration:  3153
 C        -0.177726         2.521791        -0.112873
 C        -0.750778         1.153738        -0.148592
 C        -2.186575         0.667885         0.322735
 C        -1.842487        -0.553812        -0.516581
 C        -0.734653        -1.126931         0.392090
 C        -0.121634         0.201826         0.811506
 O         0.539713         0.374780         1.788995
 C        -0.940005         0.396988        -1.412575
 O        -1.856612         1.180084        -2.357490
 H         0.675524         2.692622        -0.826008
 H        -0.944186         3.240146        -0.418958
 H         0.205335         2.846224         0.978486
 H        -2.471960         0.711947         1.371554
 H        -3.004521         1.280042        -0.122092
 H        -2.697310        -1.137015        -1.005617
 H        -0.995826        -1.686809         1.302440
 H         0.037701        -1.723097        -0.101519
 H         0.082339         0.059065        -1.889903
 H        -1.264436         1.714608        -2.876692
