19
Iteration:  2354charge 0 multiplicity 1
 C        -0.274850         2.626248         0.001693
 C        -0.737084         1.163640        -0.100705
 C        -2.203611         0.761532         0.371867
 C        -1.887818        -0.535874        -0.457387
 C        -0.810295        -1.162213         0.373958
 C        -0.002251         0.086646         0.732133
 O         0.897297         0.323630         1.518362
 C        -1.100243         0.382048        -1.394490
 O        -1.883066         1.263275        -2.263749
 H        -0.784001         2.997256         0.895477
 H         0.810469         2.563993         0.101012
 H        -0.534485         3.181244        -0.876227
 H        -2.337786         0.709063         1.554003
 H        -3.042894         1.309162        -0.032132
 H        -2.754389        -1.195571        -0.712569
 H        -1.195332        -1.713728         1.205583
 H        -0.226959        -1.748058        -0.280633
 H        -0.277024         0.004192        -1.956345
 H        -2.165579         0.660155        -2.958840
