19
Iteration:  4148charge 0 multiplicity 1
 C        -0.555082         2.715539         0.172523
 C        -0.848286         1.232377         0.009829
 C        -2.387643         0.914055         0.252478
 C        -1.943329        -0.448351        -0.443289
 C        -1.042915        -1.122147         0.572494
 C        -0.077871         0.147387         0.788371
 O         1.039328         0.137632         1.274742
 C        -0.940235         0.404236        -1.310182
 O        -1.433387         0.921854        -2.482135
 H         0.416835         2.960630        -0.246741
 H        -1.333713         3.330032        -0.344049
 H        -0.578092         3.028686         1.353807
 H        -2.695349         0.835200         1.280175
 H        -3.135523         1.472200        -0.304106
 H        -2.481846        -1.025083        -1.121124
 H        -1.497614        -1.240900         1.562933
 H        -0.564120        -2.063746         0.198437
 H         0.020948        -0.016636        -1.408561
 H        -0.766806         1.650155        -2.836477
