19
Iteration:  4137charge 0 multiplicity 1
 C        -0.522657         2.701610         0.158750
 C        -0.852588         1.278139         0.049033
 C        -2.341293         0.834969         0.223029
 C        -2.013722        -0.428309        -0.475569
 C        -1.066009        -1.088092         0.565593
 C        -0.058938         0.115505         0.767296
 O         1.028458         0.186773         1.274527
 C        -0.835616         0.405507        -1.270945
 O        -1.481693         0.915142        -2.452414
 H         0.483933         3.061808         0.015020
 H        -1.266838         3.315129        -0.389419
 H        -0.722057         2.856118         1.348756
 H        -2.874701         0.832869         1.139107
 H        -2.862927         1.438188        -0.543251
 H        -2.803870        -1.027561        -0.815877
 H        -1.424266        -1.405113         1.550387
 H        -0.597692        -2.017747         0.135399
 H         0.015954        -0.097906        -1.616209
 H        -0.869181         1.584449        -2.859652
