19
Iteration:  3777
 C        -0.267787         2.664420        -0.012361
 C        -0.713846         1.204530        -0.150905
 C        -2.238552         0.823508         0.283519
 C        -1.955702        -0.488300        -0.507048
 C        -0.861644        -1.173521         0.466118
 C        -0.111238         0.180576         0.834174
 O         0.716631         0.290846         1.714338
 C        -0.922128         0.396452        -1.429320
 O        -1.738637         1.003804        -2.394584
 H         0.328922         3.058846        -0.874901
 H        -1.165269         3.333505         0.195798
 H         0.410628         2.628858         0.984607
 H        -2.470717         0.750592         1.302328
 H        -2.867830         1.440455        -0.289763
 H        -2.694657        -1.126615        -1.101901
 H        -1.102398        -1.925001         1.230177
 H        -0.438260        -1.818884        -0.317709
 H        -0.078382        -0.142625        -1.892665
 H        -1.202449         1.803963        -2.819553
