19
Iteration:  4826charge 0 multiplicity 1
 C        -0.288788         2.665525        -0.176284
 C        -0.706944         1.166080        -0.077529
 C        -2.158963         0.779356         0.411902
 C        -1.869552        -0.512779        -0.425207
 C        -0.825175        -1.250458         0.303034
 C        -0.030355         0.157628         0.799890
 O         0.628380         0.275090         1.816080
 C        -1.060941         0.445333        -1.402502
 O        -1.760657         1.116491        -2.449629
 H         0.419764         2.843135         0.704166
 H         0.325260         2.721969        -1.156430
 H        -1.254249         3.411576        -0.215763
 H        -2.423335         0.735827         1.532189
 H        -2.867005         1.421894        -0.174844
 H        -2.655343        -1.081357        -0.787161
 H        -1.325460        -1.799006         1.147267
 H         0.012010        -1.765809        -0.237444
 H        -0.135810        -0.031970        -1.781649
 H        -1.177102         1.878799        -2.748941
