19
Iteration:   971charge 0 multiplicity 1
 C         0.073423         2.645521        -0.076850
 C        -0.653370         1.189557        -0.132079
 C        -2.011394         0.769434         0.793532
 C        -2.044349        -0.445334        -0.112593
 C        -0.717678        -1.196165         0.248887
 C         0.198919         0.054073         0.388027
 O         1.286647         0.133389         0.924967
 C        -1.538791         0.521171        -1.301504
 O        -2.529926         1.231962        -2.009194
 H        -0.463909         3.275512         0.610155
 H         1.093962         2.624360         0.268907
 H        -0.039111         3.122984        -0.979556
 H        -1.968133         0.448398         1.810529
 H        -2.830444         1.461412         0.649423
 H        -2.916815        -1.140654        -0.314814
 H        -0.763332        -2.025208         1.024132
 H        -0.377386        -1.646568        -0.736250
 H        -0.866805         0.129349        -2.052287
 H        -3.136300         1.458323        -1.303073
