19
Iteration:  1144
 C         0.006218         2.536182        -0.055021
 C        -0.675434         1.145204        -0.083007
 C        -2.001471         0.835171         0.672305
 C        -1.935349        -0.530487        -0.259074
 C        -0.708839        -1.239199         0.241554
 C         0.142396         0.035826         0.531223
 O         1.212096         0.230149         1.042132
 C        -1.449063         0.549813        -1.311262
 O        -2.518183         1.236175        -2.034797
 H         0.040408         2.997511        -1.125391
 H        -0.667038         3.247400         0.502769
 H         1.031115         2.596197         0.294934
 H        -2.075845         0.799222         1.815038
 H        -2.882874         1.416937         0.314004
 H        -2.837251        -1.030048        -0.550323
 H        -0.896522        -1.861826         1.135474
 H        -0.203914        -1.849202        -0.436676
 H        -0.823601         0.248912        -2.148157
 H        -2.810153         1.991734        -1.435382
