19
Iteration:  4280
 C        -0.193614         2.672687        -0.072231
 C        -0.649087         1.249651        -0.138187
 C        -2.192507         0.870692         0.338754
 C        -1.921182        -0.415509        -0.509446
 C        -0.774780        -1.277486         0.288277
 C        -0.118662         0.169271         0.824575
 O         0.608700         0.250112         1.835213
 C        -0.950678         0.366666        -1.390377
 O        -1.858945         0.989841        -2.385718
 H         0.888551         2.880322         0.003805
 H        -0.487683         3.199769        -1.023085
 H        -0.524644         3.331817         0.895944
 H        -2.439059         0.809992         1.305576
 H        -2.915581         1.496344        -0.172688
 H        -2.660822        -1.060070        -0.890695
 H        -1.042806        -2.054902         1.031011
 H        -0.037419        -1.785308        -0.384975
 H        -0.058562        -0.160376        -1.835974
 H        -1.601418         1.876434        -2.870142
