19
Iteration:  4637charge 0 multiplicity 1
 C        -0.345236         2.597475        -0.016527
 C        -0.816495         1.165167         0.024647
 C        -2.343686         0.851425         0.188088
 C        -1.875536        -0.475568        -0.530049
 C        -0.886985        -1.122975         0.432181
 C        -0.154687         0.127763         0.832716
 O         0.866347         0.314538         1.542651
 C        -0.919338         0.356238        -1.308813
 O        -1.628412         1.104917        -2.337991
 H         0.575538         2.620058        -0.700846
 H        -1.196308         3.263360        -0.374903
 H        -0.237979         3.044826         1.015485
 H        -2.616929         0.731287         1.165284
 H        -3.139569         1.445448        -0.282632
 H        -2.605272        -1.236746        -0.958453
 H        -1.313613        -1.391343         1.405353
 H        -0.419229        -2.043167         0.080495
 H        -0.021544        -0.257448        -1.594780
 H        -1.201614         1.134345        -3.156846
