19
Iteration:   570charge 0 multiplicity 1
 C        -0.254776         2.554675        -0.122368
 C        -0.705499         1.173614         0.022009
 C        -1.862493         0.813248         0.878909
 C        -2.002031        -0.447968        -0.101124
 C        -0.700127        -1.194909         0.208592
 C         0.263807        -0.057713         0.209804
 O         1.441080        -0.030455         0.494020
 C        -1.568311         0.567496        -1.171365
 O        -2.536794         1.506097        -1.620032
 H         0.161889         2.822510         0.844444
 H         0.504194         2.665410        -0.858247
 H        -1.163081         3.260529        -0.387327
 H        -1.790869         0.624726         1.994512
 H        -2.575374         1.661796         0.829023
 H        -2.919857        -1.073595        -0.174606
 H        -0.717083        -1.875816         1.036785
 H        -0.538090        -1.941069        -0.683999
 H        -0.933911         0.337782        -2.014667
 H        -3.015587         1.021813        -2.340090
