19
Iteration:   972charge 0 multiplicity 1
 C         0.074519         2.644832        -0.071067
 C        -0.653971         1.192105        -0.134097
 C        -2.025689         0.768564         0.796099
 C        -2.040886        -0.442214        -0.110781
 C        -0.716664        -1.190561         0.253833
 C         0.193709         0.060296         0.390415
 O         1.289412         0.130570         0.912510
 C        -1.533396         0.520061        -1.296766
 O        -2.523864         1.223562        -2.006300
 H        -0.422340         3.244866         0.632970
 H         1.087181         2.615729         0.293069
 H        -0.075172         3.149353        -0.995937
 H        -1.968193         0.449884         1.797510
 H        -2.825449         1.443595         0.631457
 H        -2.916725        -1.115509        -0.335874
 H        -0.786241        -2.007992         1.024100
 H        -0.375543        -1.673223        -0.759687
 H        -0.895990         0.117088        -2.071236
 H        -3.121041         1.485522        -1.328317
