19
Iteration:  2174charge 0 multiplicity 1
 C        -0.439502         2.684560         0.107207
 C        -0.896434         1.242516         0.020737
 C        -2.342456         0.772704         0.464765
 C        -1.930791        -0.507083        -0.402949
 C        -0.912143        -1.126655         0.581730
 C        -0.067767         0.140304         0.662285
 O         1.099658         0.105418         0.921880
 C        -0.998412         0.449399        -1.255929
 O        -1.685904         1.179538        -2.237960
 H        -0.127199         2.923872        -0.889038
 H        -1.365955         3.292880         0.366822
 H         0.443201         2.884532         0.807104
 H        -2.510156         0.494458         1.494614
 H        -3.105311         1.449415         0.074689
 H        -2.534876        -1.372919        -0.748520
 H        -1.299965        -1.352362         1.606174
 H        -0.283748        -1.991998         0.329647
 H        -0.087221         0.126091        -1.731232
 H        -1.170210         1.130094        -3.066815
