19
Iteration:  4368
 C        -0.315069         2.610215         0.026951
 C        -0.877200         1.230559        -0.026103
 C        -2.401418         0.807437         0.125808
 C        -1.903048        -0.494534        -0.467300
 C        -0.911742        -1.078655         0.535495
 C        -0.099322         0.126784         0.807525
 O         0.892249         0.254406         1.502029
 C        -0.911512         0.401384        -1.324705
 O        -1.636910         1.052442        -2.351138
 H         0.611367         2.638923        -0.612125
 H        -1.038782         3.360882        -0.402764
 H         0.099583         2.836017         1.143533
 H        -2.743136         0.671752         1.146085
 H        -3.123800         1.352595        -0.569052
 H        -2.561505        -1.289041        -0.863022
 H        -1.445814        -1.613166         1.375134
 H        -0.330064        -1.884545        -0.015201
 H         0.156718        -0.023492        -1.567383
 H        -1.155662         1.812855        -2.844046
