19
Iteration:  1312
 C        -0.315755         2.643697         0.347451
 C        -0.829664         1.245622         0.140463
 C        -2.240340         0.857643         0.579076
 C        -2.016999        -0.475919        -0.229500
 C        -0.833465        -1.157456         0.502859
 C         0.084802         0.086468         0.499539
 O         1.315592         0.141234         0.477376
 C        -1.204897         0.400755        -1.265378
 O        -2.022375         1.173695        -2.168012
 H        -0.084481         2.802148         1.372471
 H         0.626739         2.813414        -0.198735
 H        -1.144595         3.414975         0.123620
 H        -2.364844         0.769503         1.655458
 H        -2.964938         1.606831         0.120762
 H        -2.914576        -1.096266        -0.566761
 H        -1.074388        -1.473546         1.486045
 H        -0.257425        -1.865812         0.093072
 H        -0.311045        -0.002146        -1.638517
 H        -2.393415         0.793782        -2.985189
