19
Iteration:  4755
 C        -0.224617         2.618693         0.155617
 C        -0.837736         1.261269         0.015933
 C        -2.459874         0.758049         0.184893
 C        -1.775650        -0.551556        -0.600819
 C        -0.990330        -1.074971         0.639678
 C        -0.152250         0.174761         0.783263
 O         0.939794         0.293081         1.399963
 C        -0.915315         0.434597        -1.346955
 O        -1.693234         1.009607        -2.400904
 H         0.778307         2.418542         0.510719
 H        -0.260459         3.158769        -0.794738
 H        -0.803424         3.110763         0.860585
 H        -3.114569         0.695866         1.259472
 H        -3.033773         1.299118        -0.645645
 H        -2.457052        -1.334875        -1.150683
 H        -1.734900        -1.241344         1.424507
 H        -0.495877        -2.004793         0.509863
 H        -0.009056         0.011049        -1.769015
 H        -1.018081         1.605383        -2.838179
