19
Iteration:  2472
 C        -0.461037         2.674351         0.102500
 C        -0.860624         1.238755         0.178698
 C        -2.340049         0.815351         0.347919
 C        -2.002497        -0.505837        -0.414954
 C        -0.978512        -1.214273         0.518868
 C        -0.010416         0.103123         0.763947
 O         1.142647         0.269445         1.177374
 C        -1.014632         0.375213        -1.352520
 O        -1.547952         1.128371        -2.427606
 H         0.580235         2.865737         0.532971
 H        -0.481747         2.960699        -0.976373
 H        -1.159081         3.319298         0.643333
 H        -2.847025         0.805559         1.225143
 H        -3.011077         1.326598        -0.323783
 H        -2.786575        -0.974360        -1.059419
 H        -1.464342        -1.804660         1.340871
 H        -0.231090        -1.947641         0.045029
 H        -0.006196        -0.058223        -1.561884
 H        -2.550307         1.314127        -2.269824
