19
Iteration:  4794charge 0 multiplicity 1
 C        -0.332120         2.644330        -0.021602
 C        -0.720715         1.166099        -0.075604
 C        -2.310630         0.863999         0.280009
 C        -1.898455        -0.457973        -0.462762
 C        -0.826437        -1.098178         0.372235
 C        -0.113777         0.119188         0.788350
 O         0.772142         0.255039         1.648348
 C        -1.047208         0.320509        -1.368841
 O        -1.673944         1.039650        -2.369290
 H         0.561719         2.779652         0.651430
 H         0.016470         3.122145        -0.987306
 H        -1.136027         3.433855         0.324314
 H        -2.583294         0.821710         1.282196
 H        -2.985124         1.528548        -0.187936
 H        -2.582819        -1.130770        -0.808263
 H        -1.274009        -1.798054         1.128736
 H         0.063130        -1.659460        -0.038931
 H        -0.142646        -0.153552        -1.826448
 H        -0.999496         1.650510        -2.804360
