19
Iteration:  3657charge 0 multiplicity 1
 C        -0.332730         2.691336         0.073480
 C        -0.862755         1.208913        -0.038562
 C        -2.266551         0.736810         0.221454
 C        -1.905910        -0.501625        -0.565970
 C        -0.907927        -1.074231         0.566384
 C        -0.097428         0.141782         0.769935
 O         0.912559         0.248205         1.530549
 C        -1.020382         0.381633        -1.349586
 O        -1.642686         1.105417        -2.394490
 H         0.685057         2.671892         0.458729
 H        -0.487210         3.326115        -0.798881
 H        -1.006558         3.136494         0.891028
 H        -2.399959         0.710161         1.292722
 H        -2.960468         1.294871        -0.330246
 H        -2.755971        -1.135566        -1.076932
 H        -1.373120        -1.505227         1.469316
 H        -0.367460        -1.920609         0.060150
 H         0.005067        -0.024027        -1.725625
 H        -1.406564         0.787540        -3.207271
