19
Iteration:  1581charge 0 multiplicity 1
 C        -0.345453         2.681444         0.286054
 C        -0.831021         1.232336         0.088819
 C        -2.245720         0.816689         0.460878
 C        -1.927051        -0.509927        -0.373458
 C        -0.851256        -1.133693         0.526752
 C         0.043336         0.057986         0.624221
 O         1.274254         0.115965         0.750934
 C        -1.145488         0.500809        -1.283215
 O        -2.025790         1.209989        -2.165691
 H        -1.105923         3.225202         0.813148
 H         0.685814         2.593088         0.604766
 H        -0.471265         3.103540        -0.804810
 H        -2.447861         0.711461         1.529263
 H        -3.095262         1.334693         0.045299
 H        -2.659003        -1.249974        -0.710370
 H        -1.172941        -1.646025         1.424076
 H        -0.335380        -1.956234         0.084681
 H        -0.254036         0.213191        -1.912033
 H        -1.956213         0.724705        -3.077936
