19
Iteration:  1130
 C        -0.053664         2.604130         0.009772
 C        -0.705512         1.231421        -0.031793
 C        -2.109366         0.743605         0.673126
 C        -2.013663        -0.452442        -0.191417
 C        -0.750508        -1.234608         0.322004
 C         0.168881         0.035426         0.495387
 O         1.310799         0.207902         0.883988
 C        -1.435472         0.480930        -1.376310
 O        -2.370381         1.272521        -2.057871
 H         0.282178         2.936145        -1.063069
 H        -0.739153         3.351009         0.472159
 H         0.812184         2.520473         0.690298
 H        -2.151567         0.646211         1.782775
 H        -2.916484         1.457803         0.341509
 H        -2.834513        -1.135155        -0.249092
 H        -1.024738        -1.743792         1.313187
 H        -0.317838        -2.068704        -0.425436
 H        -0.760619        -0.041617        -2.138430
 H        -3.078142         1.505588        -1.435948
