19
Iteration:  1383charge 0 multiplicity 1
 C        -0.402910         2.653674         0.060987
 C        -0.887674         1.164215         0.054595
 C        -2.262285         0.818280         0.677613
 C        -2.017033        -0.476744        -0.293791
 C        -0.786606        -1.188821         0.374506
 C         0.128941         0.075141         0.555155
 O         1.346674         0.089422         0.742912
 C        -1.203198         0.513649        -1.240755
 O        -2.007137         1.219650        -2.114558
 H         0.662036         2.683224         0.463293
 H        -0.279653         3.007184        -0.975947
 H        -1.023497         3.240878         0.699658
 H        -2.340156         0.655099         1.760004
 H        -3.069417         1.408575         0.227826
 H        -2.805601        -1.023839        -0.754559
 H        -0.990551        -1.669517         1.361073
 H        -0.350054        -1.975957        -0.378115
 H        -0.288627        -0.012082        -1.696589
 H        -2.245577         2.035802        -1.705873
