19
Iteration:   731
 C        -0.193396         2.558844        -0.062901
 C        -0.828113         1.206959         0.052847
 C        -2.065225         0.798308         0.909164
 C        -2.074318        -0.457987         0.002178
 C        -0.707740        -1.195293         0.374046
 C         0.180918         0.062119         0.314828
 O         1.401246         0.001893         0.293307
 C        -1.472225         0.490464        -1.174643
 O        -2.277055         1.431101        -1.820644
 H        -0.775420         3.254532         0.564751
 H         0.821035         2.582144         0.346206
 H        -0.247704         2.845894        -1.192133
 H        -1.977204         0.641659         2.012950
 H        -2.808550         1.624234         0.904682
 H        -2.980039        -1.050563        -0.203139
 H        -0.622001        -1.531696         1.358884
 H        -0.406907        -1.987044        -0.313739
 H        -0.888945         0.023619        -2.015859
 H        -2.652403         1.123218        -2.697933
