19
Iteration:  4984
 C        -0.432248         2.722408         0.100711
 C        -0.897321         1.215420         0.075869
 C        -2.377047         0.783189         0.189405
 C        -1.903389        -0.510358        -0.442185
 C        -1.042840        -1.162089         0.610532
 C        -0.139013         0.169077         0.756274
 O         1.069425         0.193810         1.125723
 C        -0.921466         0.346200        -1.305496
 O        -1.517569         1.104187        -2.243082
 H        -1.326504         3.394114         0.261235
 H         0.391462         3.006931         0.868518
 H         0.001767         2.981662        -0.910558
 H        -2.741012         0.741946         1.177620
 H        -3.013254         1.442920        -0.463034
 H        -2.628635        -1.152672        -1.007465
 H        -1.698457        -1.249523         1.544846
 H        -0.664352        -2.200401         0.461896
 H        -0.015367        -0.094356        -1.682732
 H        -1.039974         1.601490        -2.864605
