19
Iteration:  1204charge 0 multiplicity 1
 C        -0.176394         2.538421        -0.355473
 C        -0.679434         1.124647        -0.146362
 C        -1.909921         0.771291         0.699944
 C        -1.889251        -0.474872        -0.250022
 C        -0.582174        -1.263905         0.085622
 C         0.200440        -0.023825         0.518229
 O         1.003303         0.176968         1.396672
 C        -1.433404         0.547017        -1.365393
 O        -2.427984         1.460966        -1.828505
 H        -1.034343         3.094901        -0.601894
 H         0.292659         2.993700         0.500825
 H         0.589811         2.492314        -1.167209
 H        -1.745155         0.615460         1.734604
 H        -2.794870         1.367025         0.463169
 H        -2.841868        -1.068964        -0.308102
 H        -0.597063        -1.959540         0.929578
 H        -0.228484        -1.691734        -0.854232
 H        -0.735559         0.301904        -2.186246
 H        -2.952441         1.043011        -2.490588
