19
Iteration:  1425
 C        -0.148644         2.581187        -0.006148
 C        -0.757671         1.207138        -0.109939
 C        -2.082003         0.712857         0.662400
 C        -1.951908        -0.523496        -0.331286
 C        -0.700256        -1.220615         0.261181
 C         0.087828         0.109483         0.543749
 O         1.140425         0.215069         1.183928
 C        -1.338954         0.434483        -1.380389
 O        -2.323692         1.296387        -2.065799
 H         1.004352         2.420244        -0.243568
 H        -0.530840         3.382734        -0.706526
 H        -0.147926         2.742396         1.058531
 H        -1.886871         0.566161         1.758815
 H        -2.906890         1.441513         0.516163
 H        -2.778797        -1.160165        -0.556269
 H        -0.961939        -1.796783         1.117952
 H        -0.012283        -1.643259        -0.461502
 H        -0.716427         0.163114        -2.299260
 H        -1.919481         2.099496        -2.419076
