19
Iteration:  1688charge 0 multiplicity 1
 C        -0.290760         2.580709        -0.074448
 C        -0.774047         1.164325         0.059971
 C        -2.163605         0.772561         0.497336
 C        -1.957089        -0.464405        -0.364954
 C        -0.731023        -1.168165         0.363875
 C         0.105660         0.101885         0.644843
 O         1.141138         0.140741         1.216340
 C        -1.228901         0.447690        -1.399881
 O        -2.119134         1.268450        -2.191876
 H         0.865284         2.634609         0.028671
 H        -0.506917         2.946650        -1.089353
 H        -0.835002         3.300468         0.620929
 H        -2.395315         0.498160         1.632308
 H        -2.968653         1.461875         0.131865
 H        -2.715750        -1.205607        -0.541724
 H        -1.104892        -1.660558         1.293125
 H        -0.283502        -1.896554        -0.314196
 H        -0.309861        -0.009653        -1.822996
 H        -2.095375         2.177805        -1.725388
