19
Iteration:   579charge 0 multiplicity 1
 C        -0.202796         2.534026        -0.160467
 C        -0.647398         1.113572        -0.065288
 C        -1.930019         0.800323         0.944718
 C        -2.058281        -0.448087        -0.053578
 C        -0.682143        -1.254685         0.143397
 C         0.276253        -0.056668         0.221031
 O         1.440890         0.028591         0.592665
 C        -1.577188         0.588557        -1.203556
 O        -2.556937         1.535431        -1.603925
 H         0.466103         2.915478         0.584010
 H         0.270819         2.658287        -1.097271
 H        -1.101231         3.197854        -0.185012
 H        -1.597453         0.618792         2.076321
 H        -2.776197         1.508150         0.733127
 H        -2.915548        -1.102255        -0.204509
 H        -0.561813        -1.882269         0.999333
 H        -0.443876        -1.819247        -0.846509
 H        -0.989565         0.281312        -2.076054
 H        -3.109904         1.290931        -2.388956
