19
Iteration:  3795charge 0 multiplicity 1
 C        -0.249110         2.587345         0.048711
 C        -0.799750         1.223171         0.047376
 C        -2.304480         0.852953         0.145457
 C        -1.812300        -0.503130        -0.503742
 C        -0.833337        -1.154648         0.460426
 C        -0.136493         0.114799         0.786161
 O         0.736897         0.321448         1.575854
 C        -0.989573         0.369686        -1.382997
 O        -1.730105         1.058737        -2.377293
 H         0.273688         2.757228        -0.858021
 H        -0.943135         3.327633         0.194518
 H         0.497639         2.723208         0.874013
 H        -2.622788         0.921987         1.327997
 H        -2.950360         1.518052        -0.529454
 H        -2.699588        -1.143795        -0.841315
 H        -1.523156        -1.506874         1.271374
 H        -0.050611        -1.925434         0.287637
 H        -0.043721        -0.056986        -1.728167
 H        -1.030312         1.430347        -3.055148
