19
Iteration:  3498charge 0 multiplicity 1
 C        -0.275688         2.633980         0.015283
 C        -0.741622         1.254924         0.027025
 C        -2.254244         0.765554         0.330965
 C        -1.898189        -0.601375        -0.545889
 C        -0.824702        -1.131410         0.398127
 C        -0.104028         0.125203         0.790567
 O         0.714017         0.323239         1.687047
 C        -0.955537         0.459555        -1.375201
 O        -1.750564         1.081547        -2.481571
 H         0.810079         2.893632        -0.220550
 H        -0.925913         3.389516        -0.587080
 H        -0.366932         2.959379         1.099890
 H        -2.497572         0.758029         1.385146
 H        -2.986967         1.343124        -0.198535
 H        -2.618571        -1.187298        -1.022505
 H        -1.143311        -1.734454         1.224179
 H        -0.066870        -1.693611        -0.095545
 H        -0.046785         0.046365        -1.954991
 H        -1.408003         0.686518        -3.266844
