19
Iteration:  2617charge 0 multiplicity 1
 C        -0.278127         2.585427        -0.096805
 C        -0.749619         1.195705        -0.106373
 C        -2.227249         0.814946         0.311977
 C        -1.888929        -0.504319        -0.475647
 C        -0.737437        -1.147236         0.387791
 C        -0.158680         0.163078         0.855075
 O         0.793625         0.262611         1.609322
 C        -1.053244         0.336511        -1.440550
 O        -1.758220         1.165250        -2.305259
 H        -0.627150         3.114641        -0.988024
 H        -0.595818         3.167023         0.807954
 H         0.832935         2.615493        -0.012190
 H        -2.488121         0.660903         1.264301
 H        -2.761485         1.535252        -0.184887
 H        -2.663037        -1.285249        -0.881348
 H        -1.069657        -1.834751         1.211370
 H         0.085376        -1.608523        -0.185442
 H        -0.077960        -0.017490        -1.854366
 H        -2.560021         1.490220        -1.931443
