19
Iteration:  2435charge 0 multiplicity 1
 C        -0.442770         2.745058         0.222367
 C        -0.928864         1.227571         0.062624
 C        -2.333786         0.754790         0.375804
 C        -1.963502        -0.523534        -0.430429
 C        -0.929574        -1.093346         0.562122
 C        -0.054697         0.258841         0.640931
 O         1.074036         0.151874         1.092400
 C        -1.048267         0.261721        -1.323276
 O        -1.481373         1.129651        -2.352876
 H         0.355767         2.894004         0.931024
 H         0.037410         3.031813        -0.707171
 H        -1.259668         3.497168         0.338307
 H        -2.701053         0.611502         1.494273
 H        -2.961617         1.433252        -0.312335
 H        -2.725005        -1.068239        -0.909588
 H        -1.309443        -1.273344         1.587839
 H        -0.421603        -1.957344         0.041744
 H        -0.116432        -0.063696        -1.728480
 H        -2.421813         0.827041        -2.568067
