19
Iteration:   493
 C        -0.080342         2.555356         0.189806
 C        -0.716930         1.258850         0.126524
 C        -2.063820         0.767950         0.916843
 C        -2.067702        -0.445202         0.043223
 C        -0.766596        -1.196673         0.431938
 C         0.196400         0.060998         0.227928
 O         1.336387         0.146539        -0.151774
 C        -1.469730         0.403201        -1.078866
 O        -2.359943         1.399613        -1.792341
 H        -0.568256         3.435974        -0.256341
 H        -0.057841         2.643913         1.255528
 H         1.072999         2.418306        -0.139016
 H        -1.921594         0.664437         1.991110
 H        -2.908471         1.398737         0.652104
 H        -2.972508        -1.015744        -0.226326
 H        -0.807459        -1.576205         1.430962
 H        -0.547987        -2.091697        -0.284130
 H        -0.964099        -0.271877        -1.815249
 H        -2.798163         0.826225        -2.493754
