19
Iteration:  3309
 C        -0.530806         2.617575         0.142067
 C        -0.986660         1.212476         0.170100
 C        -2.380977         0.809437         0.159454
 C        -1.876434        -0.523191        -0.505947
 C        -0.987574        -1.094668         0.605812
 C        -0.133026         0.107205         0.833288
 O         1.019028         0.273145         1.203973
 C        -0.891189         0.407254        -1.259119
 O        -1.371332         1.086408        -2.452247
 H         0.523821         2.629949        -0.252646
 H        -1.075467         3.294226        -0.622650
 H        -0.488542         3.118702         1.166324
 H        -2.995238         0.643137         1.055847
 H        -2.984883         1.311717        -0.551305
 H        -2.491800        -1.099717        -1.115270
 H        -1.459647        -1.362044         1.524953
 H        -0.345649        -1.876509         0.309423
 H         0.230719         0.250580        -1.622408
 H        -2.295005         0.915732        -2.341558
