19
Iteration:  3836charge 0 multiplicity 1
 C        -0.303141         2.607162         0.091293
 C        -0.851938         1.235347        -0.008556
 C        -2.418694         0.751914         0.207723
 C        -1.866250        -0.498033        -0.520185
 C        -0.955784        -1.121163         0.648022
 C        -0.196675         0.184052         0.844942
 O         0.901754         0.277822         1.331488
 C        -0.941743         0.396563        -1.334421
 O        -1.534586         1.099236        -2.372640
 H         0.283304         2.952512        -0.811801
 H        -1.164726         3.337677         0.215979
 H         0.341443         2.672000         0.927755
 H        -2.879891         0.663189         1.156628
 H        -3.165660         1.322249        -0.394981
 H        -2.405053        -1.248105        -1.050683
 H        -1.693055        -1.463849         1.429137
 H        -0.352070        -1.941384         0.245167
 H        -0.037174        -0.124024        -1.786634
 H        -0.864002         1.142246        -3.083726
