19
Iteration:  2785
 C        -0.412727         2.578146         0.101394
 C        -0.888162         1.206367         0.097943
 C        -2.378331         0.871772         0.221508
 C        -1.892962        -0.495268        -0.425201
 C        -0.919502        -1.203045         0.484043
 C        -0.097291         0.110510         0.793876
 O         0.966907         0.332004         1.337810
 C        -0.958230         0.355704        -1.359792
 O        -1.521567         1.102478        -2.432777
 H        -0.492556         3.014027         1.144189
 H         0.655561         2.688041        -0.177672
 H        -0.902044         3.283026        -0.655183
 H        -2.725102         1.063563         1.214290
 H        -2.960814         1.559591        -0.341325
 H        -2.598002        -1.209241        -0.895748
 H        -1.334980        -1.712763         1.392967
 H        -0.218246        -1.844670        -0.093325
 H        -0.051784        -0.276499        -1.635388
 H        -2.395080         1.404758        -2.072440
