19
Iteration:    45
 C         0.024395         2.600471        -0.101464
 C        -0.623799         1.203552        -0.098651
 C        -1.595922         0.680893         0.968342
 C        -1.970320        -0.436713        -0.099163
 C        -0.659522        -1.232413        -0.183778
 C         0.271484        -0.031951         0.015213
 O         1.456252        -0.045570         0.423677
 C        -1.815211         0.672026        -1.116084
 O        -2.987127         1.465206        -1.111509
 H         1.086237         2.514035        -0.339518
 H        -0.452268         3.183381        -0.846756
 H        -0.159204         3.079840         0.874831
 H        -1.122496         0.334255         1.892731
 H        -2.395839         1.374375         1.210617
 H        -2.885403        -0.980452        -0.231662
 H        -0.366405        -2.042182         0.453630
 H        -0.501432        -1.620353        -1.217992
 H        -1.423618         0.442486        -2.078871
 H        -3.347654         1.542631        -1.991374
