19
Iteration:  4056charge 0 multiplicity 1
 C        -0.226403         2.604499        -0.032954
 C        -0.711566         1.229212        -0.110491
 C        -2.268559         0.774085         0.255009
 C        -1.911997        -0.495402        -0.541549
 C        -0.886050        -1.183741         0.425776
 C        -0.153460         0.128504         0.912732
 O         0.768816         0.337674         1.660327
 C        -0.967186         0.387930        -1.427621
 O        -1.757292         1.080748        -2.330116
 H         0.854645         2.517185         0.398317
 H        -0.120079         3.044400        -1.082140
 H        -0.854536         3.444470         0.488103
 H        -2.521003         0.678228         1.298550
 H        -3.021138         1.381433        -0.241592
 H        -2.693472        -1.199186        -1.008945
 H        -1.359067        -1.847063         1.211709
 H        -0.138132        -1.770728        -0.141930
 H        -0.107066        -0.016229        -1.954885
 H        -1.205485         1.743202        -2.677719
