19
Iteration:  1805
 C        -0.210234         2.609854        -0.024857
 C        -0.754441         1.246352        -0.086000
 C        -2.188828         0.810516         0.485103
 C        -1.906935        -0.453178        -0.349014
 C        -0.727318        -1.183631         0.371731
 C         0.069327         0.070847         0.570895
 O         0.999121         0.151035         1.324596
 C        -1.135858         0.478838        -1.394179
 O        -2.128637         1.211607        -2.094432
 H        -1.083649         3.145516        -0.554702
 H        -0.116157         2.848438         1.038497
 H         0.746136         2.516769        -0.525499
 H        -2.220479         0.773072         1.505200
 H        -2.984499         1.372836         0.085973
 H        -2.774871        -1.047222        -0.665571
 H        -1.032772        -1.700033         1.352373
 H        -0.233676        -1.913917        -0.333044
 H        -0.362423         0.048874        -2.099004
 H        -2.092626         1.213953        -3.032196
