19
Iteration:  1483charge 0 multiplicity 1
 C        -0.084671         2.605737        -0.187003
 C        -0.708634         1.188777        -0.217674
 C        -2.057484         0.738771         0.605884
 C        -1.869470        -0.479828        -0.353181
 C        -0.564610        -1.137966         0.140139
 C         0.099506         0.076249         0.584445
 O         0.952780         0.080289         1.474728
 C        -1.354823         0.554366        -1.384051
 O        -2.393854         1.314799        -1.919860
 H        -0.094533         2.960823        -1.223969
 H        -0.653662         3.265943         0.470061
 H         0.965439         2.515166         0.286605
 H        -1.714584         0.553142         1.603878
 H        -2.963066         1.307346         0.472543
 H        -2.730540        -1.111538        -0.622512
 H        -0.705736        -1.906904         0.949009
 H         0.154134        -1.670946        -0.590068
 H        -0.667767         0.096261        -2.226096
 H        -2.542094         1.133049        -2.912454
