19
Iteration:   145
 C        -0.204723         2.579492        -0.003956
 C        -0.693785         1.212371         0.012125
 C        -1.785815         0.692465         1.035440
 C        -1.949838        -0.431855        -0.021424
 C        -0.679988        -1.241972         0.044399
 C         0.288871        -0.026788         0.060838
 O         1.493550        -0.064660         0.099185
 C        -1.604367         0.653935        -1.074870
 O        -2.725172         1.530188        -1.397927
 H        -0.976842         3.192442         0.498263
 H         0.529181         2.533861         0.710123
 H         0.087538         3.101095        -0.949097
 H        -1.466111         0.430704         2.070960
 H        -2.699726         1.321656         0.981205
 H        -2.936805        -0.983679         0.011883
 H        -0.705570        -1.899237         0.819837
 H        -0.485632        -1.726199        -0.950943
 H        -1.093280         0.286056        -1.940986
 H        -3.463859         1.059905        -1.790001
