19
Iteration:   407charge 0 multiplicity 1
 C        -0.193965         2.631315        -0.248604
 C        -0.621588         1.118350        -0.136116
 C        -1.740243         0.758914         0.910418
 C        -2.006553        -0.473738        -0.030185
 C        -0.675202        -1.156673         0.055035
 C         0.241251        -0.024705         0.146277
 O         1.392848        -0.052657         0.558684
 C        -1.615639         0.576297        -1.125840
 O        -2.718517         1.427564        -1.430395
 H         0.843888         2.606947         0.117678
 H        -0.324065         3.128410        -1.183455
 H        -0.787400         3.192079         0.604738
 H        -1.451227         0.629403         1.900298
 H        -2.475738         1.534387         0.904860
 H        -2.945609        -1.118043        -0.042646
 H        -0.676952        -1.768474         0.939696
 H        -0.374602        -1.818138        -0.845134
 H        -1.234988         0.170622        -2.139954
 H        -2.502570         2.291887        -1.834852
