19
Iteration:  4739charge 0 multiplicity 1
 C        -0.304423         2.586219         0.206020
 C        -0.934900         1.259839        -0.023507
 C        -2.393296         0.754350         0.034306
 C        -1.893433        -0.551485        -0.486745
 C        -0.982452        -1.019501         0.661347
 C        -0.182819         0.212143         0.866301
 O         0.964441         0.239351         1.285885
 C        -0.891784         0.393117        -1.346133
 O        -1.626306         1.010637        -2.388916
 H         0.799930         2.484878         0.306361
 H        -0.398345         3.342227        -0.596853
 H        -0.510950         3.011567         1.253872
 H        -2.656579         0.633661         0.996484
 H        -3.037214         1.324421        -0.586918
 H        -2.484123        -1.248979        -0.988948
 H        -1.581611        -1.169052         1.607129
 H        -0.172577        -1.786633         0.467076
 H         0.164733         0.065602        -1.596025
 H        -1.016788         1.732406        -2.827800
