19
Iteration:  1542
 C        -0.302261         2.574866        -0.001213
 C        -0.796562         1.160054         0.007548
 C        -2.183016         0.701738         0.576792
 C        -1.974051        -0.547295        -0.352320
 C        -0.736610        -1.110185         0.317672
 C         0.063825         0.088479         0.542602
 O         1.158752         0.170194         1.093708
 C        -1.249081         0.447975        -1.330935
 O        -2.026454         1.388239        -2.052640
 H        -1.029974         3.389747        -0.063744
 H         0.314425         2.960489         0.834953
 H         0.272471         2.671304        -0.885315
 H        -2.108344         0.578938         1.670121
 H        -2.949946         1.465385         0.298763
 H        -2.723116        -1.272748        -0.751471
 H        -1.025012        -1.550691         1.304341
 H        -0.118971        -1.798083        -0.374262
 H        -0.454871        -0.084364        -1.884446
 H        -2.633082         0.935901        -2.597281
