19
Iteration:  4960charge 0 multiplicity 1
 C        -0.513338         2.710569         0.072468
 C        -0.840131         1.192392         0.138664
 C        -2.412020         0.825632         0.242821
 C        -1.976492        -0.440327        -0.476922
 C        -0.924533        -1.049676         0.547337
 C        -0.075208         0.161956         0.844737
 O         1.105231         0.072038         1.242914
 C        -1.020368         0.367304        -1.313868
 O        -1.549054         1.032627        -2.403042
 H        -1.445828         3.317462         0.318690
 H         0.297309         3.092329         0.790711
 H        -0.106006         3.083236        -0.946837
 H        -2.772018         0.903884         1.341497
 H        -2.909630         1.581432        -0.361028
 H        -2.600277        -1.057394        -1.036996
 H        -1.384251        -1.494524         1.486101
 H        -0.316096        -1.909190         0.206062
 H        -0.128718        -0.042169        -1.680016
 H        -0.856318         1.634967        -2.889206
