19
Iteration:  1612charge 0 multiplicity 1
 C        -0.347780         2.693902         0.363063
 C        -0.869237         1.219927         0.123221
 C        -2.317293         0.808147         0.463211
 C        -1.992475        -0.495055        -0.297637
 C        -0.922506        -1.105488         0.542521
 C         0.079296         0.129193         0.548743
 O         1.277606         0.147503         0.629599
 C        -1.144805         0.440123        -1.295652
 O        -1.900146         1.099417        -2.223240
 H        -0.272731         2.918293         1.513194
 H         0.732760         2.785565         0.064542
 H        -0.980264         3.457730        -0.228381
 H        -2.471840         0.570303         1.596626
 H        -3.210598         1.226405        -0.004742
 H        -2.747443        -1.215046        -0.575812
 H        -1.224683        -1.416322         1.536410
 H        -0.524172        -1.923366        -0.001217
 H        -0.261255        -0.093167        -1.579112
 H        -1.371475         1.460296        -2.885111
