19
Iteration:  4202
 C        -0.341274         2.579368        -0.031826
 C        -0.893981         1.182776         0.078368
 C        -2.388702         0.858878         0.206825
 C        -1.948909        -0.489149        -0.543228
 C        -0.910434        -1.159691         0.520415
 C        -0.152678         0.091691         0.827467
 O         0.919795         0.337727         1.411488
 C        -0.949918         0.374282        -1.324274
 O        -1.557643         1.091278        -2.313060
 H         0.698832         2.543341        -0.416655
 H        -0.876247         3.530685        -0.323713
 H        -0.173299         2.801627         1.189951
 H        -2.914534         0.728682         1.066675
 H        -2.907779         1.322556        -0.526549
 H        -2.527454        -1.179598        -1.121772
 H        -1.287852        -1.361468         1.537879
 H        -0.330921        -2.035198         0.114896
 H         0.072643        -0.006313        -1.514772
 H        -0.994930         1.546004        -3.050226
