19
Iteration:  4144
 C        -0.561007         2.712671         0.169344
 C        -0.838861         1.234839         0.017875
 C        -2.354698         0.892896         0.249904
 C        -1.981750        -0.421249        -0.450483
 C        -1.064090        -1.123233         0.567368
 C        -0.085427         0.150373         0.776283
 O         1.051639         0.152664         1.280013
 C        -0.903899         0.428820        -1.296416
 O        -1.444297         0.915571        -2.471742
 H         0.515692         3.027296        -0.157468
 H        -1.316940         3.312347        -0.375163
 H        -0.595817         2.886421         1.304978
 H        -2.864712         0.843140         1.226687
 H        -3.083648         1.332441        -0.397978
 H        -2.599721        -1.156307        -1.108711
 H        -1.361446        -1.268820         1.647515
 H        -0.669758        -2.064653         0.134072
 H         0.121917        -0.046157        -1.512838
 H        -0.850164         1.544383        -2.775958
