19
Iteration:  2160
 C        -0.477199         2.666422         0.076966
 C        -0.919466         1.220777         0.116976
 C        -2.334688         0.770275         0.486399
 C        -1.918058        -0.564174        -0.379635
 C        -0.937198        -1.183776         0.660984
 C         0.009315         0.048125         0.697860
 O         1.195321         0.168733         0.924019
 C        -1.075907         0.461733        -1.313347
 O        -1.677713         1.276514        -2.371549
 H        -0.075172         3.181915        -0.848741
 H        -1.385155         3.367499         0.348805
 H         0.298198         2.772733         0.925184
 H        -2.451065         0.802916         1.516370
 H        -3.109498         1.199324        -0.070232
 H        -2.764343        -0.938481        -0.927466
 H        -1.608456        -1.244552         1.595590
 H        -0.467848        -2.238881         0.423596
 H        -0.133512        -0.058227        -1.493088
 H        -1.210280         1.011970        -3.146195
