19
Iteration:  1321charge 0 multiplicity 1
 C        -0.364327         2.586896         0.348317
 C        -0.809017         1.211670         0.107244
 C        -2.257010         0.818044         0.638074
 C        -2.011799        -0.441517        -0.205854
 C        -0.845326        -1.093832         0.543887
 C         0.094791         0.099941         0.494676
 O         1.299641         0.119221         0.439887
 C        -1.174497         0.454254        -1.275627
 O        -1.961775         1.203299        -2.186799
 H        -0.016919         2.690324         1.332097
 H         0.385687         2.988919        -0.336152
 H        -1.263253         3.261634         0.156001
 H        -2.597621         0.799643         1.691721
 H        -2.879774         1.466907        -0.003038
 H        -2.866192        -1.105750        -0.559552
 H        -1.021413        -1.384804         1.580548
 H        -0.492984        -1.972166        -0.025681
 H        -0.292597         0.033608        -1.786119
 H        -2.417163         0.451239        -2.602404
