19
Iteration:  4444charge 0 multiplicity 1
 C        -0.400085         2.695567         0.171975
 C        -0.846266         1.238433         0.091966
 C        -2.421315         0.771807         0.219654
 C        -1.935948        -0.446024        -0.458182
 C        -1.008000        -1.115222         0.558070
 C        -0.148293         0.153276         0.850777
 O         0.979316         0.264921         1.289059
 C        -0.957622         0.325567        -1.353273
 O        -1.506032         1.034762        -2.502058
 H         0.650385         2.699182         0.175047
 H        -0.756956         3.314265        -0.636446
 H        -0.537742         3.140321         1.214443
 H        -2.828704         0.779619         1.301724
 H        -2.847557         1.574599        -0.523497
 H        -2.616306        -1.238920        -0.829576
 H        -1.246269        -1.533923         1.578025
 H        -0.373292        -1.956558         0.142941
 H        -0.022256        -0.172243        -1.520816
 H        -0.858340         1.129309        -3.140493
