19
Iteration:   992
 C        -0.043951         2.537515         0.019902
 C        -0.797010         1.247292         0.014877
 C        -2.059432         0.856627         0.761040
 C        -2.011907        -0.419563        -0.199613
 C        -0.752370        -1.129433         0.279282
 C         0.149155         0.098286         0.404484
 O         1.329442         0.093671         0.678967
 C        -1.423953         0.481123        -1.255639
 O        -2.428115         1.137521        -1.983681
 H        -0.139629         3.078235         0.996393
 H         1.003192         2.270676        -0.142988
 H        -0.295453         3.215968        -0.717917
 H        -1.953566         0.761428         1.860131
 H        -2.976110         1.447191         0.553404
 H        -2.879347        -1.106165        -0.417264
 H        -0.835399        -1.446761         1.360962
 H        -0.273809        -1.902452        -0.303860
 H        -0.660544         0.028501        -1.896223
 H        -2.618902         1.898940        -1.400328
