19
Iteration:  4460charge 0 multiplicity 1
 C        -0.311562         2.612418         0.132660
 C        -0.960019         1.261653         0.061126
 C        -2.433149         0.841880         0.134270
 C        -1.954387        -0.578517        -0.496242
 C        -0.923349        -1.083532         0.559207
 C        -0.081291         0.217545         0.886910
 O         1.005101         0.240259         1.357218
 C        -0.985180         0.371564        -1.333088
 O        -1.564136         1.080781        -2.401010
 H         0.869004         2.499450         0.305711
 H        -0.528642         3.165806        -0.860875
 H        -0.783758         3.124671         0.988581
 H        -2.897198         0.713072         1.079374
 H        -3.063687         1.267856        -0.558405
 H        -2.714873        -1.180480        -1.003057
 H        -1.561969        -1.519518         1.322139
 H        -0.146261        -1.761936         0.227715
 H        -0.032676        -0.157899        -1.724101
 H        -0.881272         1.011977        -3.079292
