19
Iteration:  3132
 C        -0.269360         2.656615        -0.089225
 C        -0.776019         1.230810        -0.109312
 C        -2.247756         0.849732         0.245640
 C        -1.820571        -0.555820        -0.525217
 C        -0.732068        -1.240580         0.366306
 C        -0.038516         0.082062         0.810104
 O         0.607308         0.360080         1.758980
 C        -1.033251         0.380632        -1.378659
 O        -1.728696         1.078279        -2.323309
 H         0.443993         2.705747        -0.958991
 H        -1.017107         3.429489        -0.265838
 H         0.397779         3.055128         0.829097
 H        -2.757075         0.773403         1.229136
 H        -3.103371         1.386374        -0.298529
 H        -2.588899        -1.331672        -0.866156
 H        -1.143847        -1.825495         1.194004
 H        -0.130226        -1.929160        -0.211406
 H        -0.162768        -0.112478        -1.845138
 H        -1.468794         2.004069        -2.269052
