19
Iteration:   266charge 0 multiplicity 1
 C        -0.296846         2.638798        -0.007322
 C        -0.677093         1.164104         0.067748
 C        -1.852245         0.730101         1.034537
 C        -1.963533        -0.422231         0.068807
 C        -0.721175        -1.224595         0.190385
 C         0.269063        -0.072931         0.113703
 O         1.454226        -0.073964        -0.002673
 C        -1.570341         0.585199        -1.094118
 O        -2.542654         1.569831        -1.547650
 H         0.230060         2.853399        -0.938801
 H        -1.202253         3.173947        -0.017205
 H         0.332580         2.901743         0.885201
 H        -1.621367         0.563000         2.116939
 H        -2.675985         1.477789         1.030838
 H        -2.879508        -1.122717        -0.043220
 H        -0.760762        -1.612235         1.162480
 H        -0.549041        -1.993742        -0.599552
 H        -1.073376         0.093301        -1.894864
 H        -3.109450         0.967706        -2.074446
