19
Iteration:   373charge 0 multiplicity 1
 C         0.066598         2.506644        -0.347424
 C        -0.623111         1.146907        -0.151441
 C        -1.690083         0.651024         0.956147
 C        -1.969071        -0.475124        -0.071030
 C        -0.654881        -1.198536        -0.059906
 C         0.267780        -0.042847         0.186398
 O         1.356012         0.115272         0.720356
 C        -1.778382         0.632940        -1.159437
 O        -2.915505         1.459021        -1.427316
 H         0.401683         2.878211         0.655008
 H         0.997465         2.494771        -0.837222
 H        -0.557952         3.404250        -0.779396
 H        -1.260257         0.377086         1.854372
 H        -2.517213         1.308764         1.024459
 H        -2.861693        -1.123283        -0.015828
 H        -0.645496        -1.908317         0.760929
 H        -0.319728        -1.806507        -0.987307
 H        -1.391046         0.190587        -2.154265
 H        -2.813542         2.356099        -1.120818
