19
Iteration:  4949charge 0 multiplicity 1
 C        -0.466448         2.716652         0.096963
 C        -0.860067         1.273111         0.009682
 C        -2.374069         0.887285         0.320072
 C        -1.966154        -0.463504        -0.431875
 C        -0.881066        -1.142635         0.497103
 C        -0.073034         0.135130         0.830248
 O         1.064331         0.083046         1.321807
 C        -1.000555         0.449850        -1.302790
 O        -1.576088         1.004111        -2.472107
 H        -1.470385         3.211133         0.336753
 H         0.335660         2.977073         0.881029
 H        -0.279480         3.049810        -1.008014
 H        -2.861650         0.714114         1.378718
 H        -3.032497         1.495011        -0.297652
 H        -2.656927        -1.152378        -0.855793
 H        -1.485041        -1.458165         1.412520
 H        -0.255205        -1.902927        -0.018341
 H        -0.182754        -0.186835        -1.451439
 H        -0.931767         1.592035        -2.877820
