19
Iteration:  1776charge 0 multiplicity 1
 C        -0.017085         2.606811        -0.041090
 C        -0.647692         1.216626        -0.034117
 C        -2.083904         0.763512         0.488410
 C        -1.973633        -0.519136        -0.449628
 C        -0.636412        -1.149290         0.194590
 C         0.070980         0.097209         0.690574
 O         0.969087         0.229270         1.531866
 C        -1.384443         0.457321        -1.382643
 O        -2.298154         1.197828        -2.161998
 H        -0.360516         2.990534        -1.077560
 H        -0.372120         3.304882         0.726791
 H         1.046391         2.513741         0.192350
 H        -2.155913         0.697417         1.688969
 H        -2.838906         1.484150         0.023819
 H        -2.738931        -1.262180        -0.570214
 H        -0.876430        -2.025914         0.847923
 H         0.085934        -1.607694        -0.554148
 H        -0.790958         0.083845        -2.259064
 H        -2.155926         1.325957        -3.182468
