19
Iteration:   602charge 0 multiplicity 1
 C        -0.051283         2.546289        -0.334844
 C        -0.696720         1.187393        -0.106957
 C        -1.799851         0.649792         0.896854
 C        -2.019484        -0.519271        -0.119412
 C        -0.669105        -1.220093         0.044133
 C         0.224839         0.030788         0.280833
 O         1.315068         0.113176         0.784384
 C        -1.712841         0.492035        -1.163077
 O        -2.555585         1.574331        -1.515397
 H         0.964100         2.370950        -0.046985
 H        -0.028165         2.818707        -1.338459
 H        -0.389131         3.453859         0.288560
 H        -1.497772         0.263730         1.977327
 H        -2.668400         1.368952         0.843404
 H        -2.881276        -1.213710        -0.076297
 H        -0.724903        -1.958814         0.810777
 H        -0.442790        -1.704839        -1.005088
 H        -1.234643         0.196422        -2.083195
 H        -3.037306         1.423668        -2.306854
