19
Iteration:  2210
 C        -0.335072         2.645448         0.133563
 C        -0.813102         1.212932         0.120516
 C        -2.369013         0.884548         0.327853
 C        -1.970281        -0.496006        -0.403857
 C        -0.829885        -1.252900         0.434335
 C         0.056113         0.071888         0.715658
 O         1.171406         0.251873         1.180952
 C        -1.142683         0.467415        -1.328549
 O        -1.886219         1.076484        -2.308255
 H        -0.233384         3.010890        -0.904328
 H        -0.900965         3.378907         0.638730
 H         0.620292         2.742614         0.592911
 H        -2.869995         0.990425         1.422510
 H        -3.052270         1.584758        -0.318885
 H        -2.677534        -1.336423        -0.763632
 H        -1.160671        -1.653142         1.360088
 H        -0.338709        -1.953625        -0.168639
 H        -0.243882        -0.105202        -1.704396
 H        -1.331113         1.694691        -2.782497
