19
Iteration:  2418
 C        -0.370466         2.735089         0.155823
 C        -0.845149         1.266372         0.091280
 C        -2.368168         0.722837         0.368636
 C        -1.954410        -0.508315        -0.456990
 C        -0.986381        -1.131918         0.559980
 C        -0.063515         0.087720         0.771774
 O         1.109784         0.241210         1.113528
 C        -1.010923         0.449390        -1.336088
 O        -1.586183         1.109719        -2.441338
 H         0.223718         2.901263         1.120641
 H         0.299389         3.089323        -0.659502
 H        -1.200084         3.434577         0.293819
 H        -2.506941         0.465642         1.356637
 H        -3.274206         1.197871         0.068106
 H        -2.677856        -1.281472        -0.944117
 H        -1.613416        -1.423742         1.410586
 H        -0.351427        -2.020566         0.417536
 H        -0.051130        -0.080213        -1.703181
 H        -2.496018         0.666076        -2.651684
