19
Iteration:  1878
 C        -0.397668         2.734239         0.133850
 C        -0.894673         1.297017         0.123182
 C        -2.335584         0.810278         0.453927
 C        -1.991591        -0.508814        -0.312605
 C        -0.894912        -1.233582         0.486015
 C         0.000064         0.052245         0.623639
 O         1.154606         0.208125         0.811169
 C        -1.086037         0.431851        -1.203835
 O        -1.681572         1.165675        -2.190522
 H        -0.908185         3.153418         0.917421
 H         0.719048         2.685767         0.304330
 H        -0.718106         3.073462        -0.887571
 H        -2.701169         0.718530         1.577905
 H        -3.121786         1.324635        -0.161651
 H        -2.820162        -1.165484        -0.644179
 H        -1.157604        -1.643603         1.426237
 H        -0.355419        -1.925720        -0.106460
 H        -0.121729         0.033098        -1.607206
 H        -1.643639         0.783724        -3.076368
