19
Iteration:   215charge 0 multiplicity 1
 C        -0.039542         2.553370         0.217467
 C        -0.759195         1.224877         0.190425
 C        -1.890251         0.745238         1.040041
 C        -2.010536        -0.491126         0.042431
 C        -0.717602        -1.268756         0.307667
 C         0.176110         0.024100         0.107418
 O         1.357214         0.121582        -0.307702
 C        -1.586967         0.581235        -1.062135
 O        -2.540402         1.349316        -1.720414
 H         0.912485         2.339475         0.738377
 H         0.371931         2.812372        -0.885564
 H        -0.694176         3.257849         0.693288
 H        -1.698888         0.561852         2.163415
 H        -2.830419         1.309930         0.837695
 H        -3.008388        -0.870777        -0.098225
 H        -0.757170        -1.618123         1.422043
 H        -0.394066        -2.039582        -0.369457
 H        -0.793314         0.330517        -1.859420
 H        -2.724507         1.966620        -1.026088
