19
Iteration:  2770
 C        -0.399686         2.601208         0.163590
 C        -0.880868         1.212325        -0.031146
 C        -2.377869         0.867079         0.210964
 C        -1.966873        -0.536528        -0.488538
 C        -0.881423        -1.103450         0.564827
 C        -0.083350         0.160718         0.784248
 O         1.009643         0.231048         1.274672
 C        -0.941988         0.446682        -1.263412
 O        -1.525533         1.021707        -2.393293
 H        -0.898344         3.008062         1.008380
 H         0.671506         2.678009         0.262242
 H        -0.800446         3.129162        -0.724392
 H        -2.971784         0.732102         1.157898
 H        -3.148510         1.388935        -0.450723
 H        -2.798884        -1.172694        -0.999281
 H        -1.373607        -1.429662         1.510626
 H        -0.270224        -1.920527         0.117819
 H         0.069570         0.272934        -1.670829
 H        -2.298247         1.500747        -2.274803
