19
Iteration:  4442charge 0 multiplicity 1
 C        -0.408391         2.706159         0.188102
 C        -0.840705         1.236811         0.085644
 C        -2.421768         0.798219         0.220307
 C        -1.931272        -0.450372        -0.456208
 C        -1.014368        -1.121739         0.554984
 C        -0.133960         0.135742         0.842225
 O         0.960608         0.268017         1.280283
 C        -0.951886         0.342838        -1.358975
 O        -1.501751         1.018898        -2.494742
 H         0.635880         2.734258         0.125631
 H        -0.812925         3.255406        -0.618683
 H        -0.530578         3.096939         1.168133
 H        -2.796900         0.733949         1.351269
 H        -2.858661         1.575669        -0.439653
 H        -2.599945        -1.237512        -0.799131
 H        -1.245276        -1.474376         1.574578
 H        -0.361048        -1.959906         0.165461
 H        -0.058928        -0.201290        -1.542259
 H        -0.760523         1.126158        -3.142318
