19
Iteration:  2270
 C        -0.149871         2.560257        -0.066757
 C        -0.680879         1.216542        -0.076191
 C        -2.217180         0.743795         0.407502
 C        -1.863150        -0.508953        -0.402341
 C        -0.747688        -1.234797         0.300730
 C         0.023906         0.119864         0.711913
 O         0.847320         0.319534         1.596109
 C        -1.130273         0.515817        -1.418709
 O        -2.070387         1.108585        -2.285885
 H        -0.822074         3.346357        -0.405436
 H         0.124162         2.824545         1.005791
 H         0.768858         2.623514        -0.720187
 H        -2.410412         0.730338         1.453658
 H        -2.905066         1.277487        -0.186447
 H        -2.774835        -0.990886        -0.620825
 H        -1.084834        -1.797920         1.228261
 H        -0.300381        -2.049824        -0.382302
 H        -0.268079         0.136311        -2.081000
 H        -2.059739         2.109847        -2.389806
