19
Iteration:  1324
 C        -0.380031         2.595802         0.335442
 C        -0.815463         1.181681         0.100132
 C        -2.252937         0.803998         0.630525
 C        -2.002360        -0.424993        -0.198509
 C        -0.841392        -1.096935         0.552068
 C         0.093923         0.102025         0.490369
 O         1.307086         0.108807         0.433764
 C        -1.173902         0.483897        -1.255995
 O        -1.934363         1.209720        -2.189942
 H         0.000720         2.646633         1.365216
 H         0.327496         2.996069        -0.405657
 H        -1.284319         3.256295         0.210317
 H        -2.624071         0.807786         1.639327
 H        -3.007197         1.445084         0.070364
 H        -2.814798        -1.118222        -0.546194
 H        -1.065907        -1.343330         1.565189
 H        -0.594121        -1.905785         0.033225
 H        -0.434472         0.030671        -1.880385
 H        -2.459536         0.358348        -2.496389
