19
Iteration:   954charge 0 multiplicity 1
 C        -0.058657         2.544916        -0.190340
 C        -0.679908         1.204455        -0.073800
 C        -1.824867         0.807100         0.811202
 C        -1.980265        -0.456293        -0.175668
 C        -0.665049        -1.225096         0.104588
 C         0.217609         0.012972         0.415858
 O         1.221646         0.139950         1.093408
 C        -1.549629         0.511688        -1.320234
 O        -2.581851         1.337235        -1.954344
 H        -0.605706         3.427051         0.222377
 H         0.861806         2.497576         0.464234
 H         0.146125         2.706510        -1.350087
 H        -1.483127         0.699194         1.883347
 H        -2.649517         1.544167         0.664062
 H        -2.935124        -0.947524        -0.199476
 H        -0.750670        -1.792168         1.009878
 H        -0.319141        -1.909472        -0.687473
 H        -1.077250         0.064424        -2.235810
 H        -3.416543         1.293519        -1.528271
