19
Iteration:   728charge 0 multiplicity 1
 C        -0.205285         2.530058        -0.075736
 C        -0.842072         1.208136         0.016945
 C        -2.039963         0.807240         0.921231
 C        -2.080195        -0.460419         0.015317
 C        -0.742093        -1.178395         0.339452
 C         0.185672         0.076772         0.327190
 O         1.426468        -0.000372         0.326488
 C        -1.458410         0.489776        -1.187007
 O        -2.305198         1.434698        -1.818907
 H        -0.826515         3.307375         0.525585
 H         0.831172         2.546624         0.426124
 H        -0.130569         2.790764        -1.112181
 H        -1.860344         0.545935         1.894365
 H        -2.745787         1.620984         0.916991
 H        -2.951310        -1.061719        -0.214917
 H        -0.611119        -1.590128         1.420698
 H        -0.387762        -1.924365        -0.370288
 H        -0.823318         0.063472        -1.941510
 H        -2.721124         1.089707        -2.641832
