19
Iteration:   606charge 0 multiplicity 1
 C        -0.029544         2.538045        -0.331826
 C        -0.708683         1.156284        -0.107466
 C        -1.776036         0.659588         0.916681
 C        -2.035392        -0.535852        -0.133601
 C        -0.660246        -1.204516         0.034278
 C         0.208845         0.037780         0.261576
 O         1.280449         0.119993         0.815063
 C        -1.714102         0.527405        -1.184426
 O        -2.562870         1.559017        -1.494934
 H         1.095012         2.331312        -0.223391
 H        -0.126887         2.808810        -1.468357
 H        -0.253111         3.427936         0.305716
 H        -1.416306         0.344778         1.804908
 H        -2.617665         1.305027         0.914161
 H        -2.836647        -1.311014        -0.153327
 H        -0.632965        -1.979309         0.883452
 H        -0.365071        -1.598552        -0.928582
 H        -1.093539         0.217441        -2.064902
 H        -3.138600         1.466750        -2.314106
