19
Iteration:   141
 C        -0.235803         2.586236        -0.041797
 C        -0.703923         1.193211         0.021690
 C        -1.737691         0.679760         1.030657
 C        -1.978754        -0.446938        -0.046149
 C        -0.658502        -1.223541         0.008778
 C         0.266446        -0.016720         0.078742
 O         1.504820        -0.060107         0.133127
 C        -1.642399         0.673323        -1.064881
 O        -2.705784         1.552616        -1.388637
 H        -0.996570         3.241932         0.354249
 H         0.555665         2.471551         0.788178
 H         0.205477         2.886389        -0.993491
 H        -1.481931         0.410288         2.025316
 H        -2.578655         1.340991         0.988231
 H        -2.911921        -0.944923        -0.036961
 H        -0.622230        -2.006735         0.874492
 H        -0.532810        -1.799459        -0.915466
 H        -1.129054         0.234720        -1.940406
 H        -3.479087         0.962033        -1.588494
