19
Iteration:  4615
 C        -0.213093         2.601336         0.000195
 C        -0.727054         1.168033        -0.088790
 C        -2.288425         0.755688         0.145515
 C        -1.848930        -0.604920        -0.541609
 C        -0.929095        -1.148775         0.555566
 C        -0.118587         0.187968         0.840131
 O         0.784333         0.373346         1.626227
 C        -0.948117         0.317866        -1.400981
 O        -1.808198         1.196745        -2.317376
 H         0.923894         2.495323        -0.198397
 H        -0.673781         3.491211        -0.501917
 H        -0.349243         2.869777         1.086010
 H        -2.735209         0.773601         1.067555
 H        -2.944831         1.278547        -0.537660
 H        -2.700995        -1.183551        -1.010890
 H        -1.306869        -1.742419         1.390711
 H        -0.164762        -1.770133         0.064605
 H        -0.005346        -0.040943        -1.917476
 H        -1.265111         1.397385        -3.161085
