19
Iteration:  3202charge 0 multiplicity 1
 C        -0.208691         2.580053        -0.015429
 C        -0.773391         1.199641        -0.067145
 C        -2.251766         0.781945         0.162916
 C        -1.783696        -0.522764        -0.459832
 C        -0.731730        -1.157457         0.418158
 C        -0.106152         0.115419         0.769293
 O         0.620467         0.324574         1.726338
 C        -1.003029         0.475926        -1.440166
 O        -1.831350         1.119320        -2.300407
 H         0.871081         2.519916         0.072665
 H        -0.528131         3.313820        -0.803362
 H        -0.477222         3.028103         0.862779
 H        -2.516207         0.826246         1.243433
 H        -2.909018         1.449067        -0.342259
 H        -2.441446        -1.220055        -0.898589
 H        -1.047583        -1.796507         1.254837
 H        -0.030149        -1.696926        -0.237868
 H        -0.185990         0.144214        -1.913057
 H        -1.549129         0.673717        -3.120718
