19
Iteration:   272charge 0 multiplicity 1
 C        -0.295520         2.676983        -0.006131
 C        -0.627150         1.146715         0.012143
 C        -1.818613         0.754634         1.007500
 C        -2.019006        -0.451037         0.041520
 C        -0.658122        -1.241415         0.194519
 C         0.227319        -0.097323         0.087360
 O         1.460833        -0.082889         0.073698
 C        -1.600848         0.590394        -1.087608
 O        -2.568170         1.558287        -1.511728
 H         0.105566         2.974424        -1.003950
 H        -1.276399         3.254424         0.161120
 H         0.522734         3.052131         0.638027
 H        -1.633924         0.460088         2.050120
 H        -2.675955         1.407610         1.125808
 H        -2.971438        -0.890207        -0.002048
 H        -0.634237        -1.731368         1.237559
 H        -0.578535        -1.975449        -0.624407
 H        -1.011253         0.165411        -1.990865
 H        -3.096577         1.142330        -2.263665
