19
Iteration:  3054charge 0 multiplicity 1
 C        -0.403178         2.612112         0.159464
 C        -0.943799         1.211645         0.100803
 C        -2.381326         0.821775         0.194966
 C        -1.959900        -0.486803        -0.523357
 C        -0.940019        -1.086270         0.572725
 C        -0.132205         0.158997         0.832653
 O         0.963824         0.356643         1.293445
 C        -0.938164         0.267818        -1.352074
 O        -1.392023         1.031578        -2.450512
 H         0.473791         2.868821        -0.514775
 H        -1.122184         3.398807        -0.159877
 H        -0.002460         2.674790         1.263469
 H        -2.611899         0.939397         1.320103
 H        -3.192009         1.331364        -0.451441
 H        -2.732764        -1.078890        -1.116264
 H        -1.461769        -1.497325         1.454813
 H        -0.232930        -1.806692         0.170657
 H        -0.070056        -0.309183        -1.570723
 H        -2.274199         1.288310        -2.380779
