19
Iteration:  2808charge 0 multiplicity 1
 C        -0.285090         2.666826         0.024144
 C        -0.807613         1.220798         0.024718
 C        -2.354808         0.680858         0.320174
 C        -1.997234        -0.560029        -0.506145
 C        -0.904881        -1.152013         0.430184
 C        -0.075449         0.224431         0.788378
 O         0.910086         0.295435         1.504170
 C        -1.074631         0.409698        -1.402420
 O        -1.498845         1.098653        -2.432902
 H        -0.035228         2.961990         1.091567
 H         0.584892         2.953026        -0.635107
 H        -1.065462         3.376734        -0.361525
 H        -2.528011         0.495387         1.386528
 H        -3.122986         1.384879         0.034065
 H        -2.800872        -1.196805        -0.820906
 H        -1.392998        -1.606987         1.321107
 H        -0.086795        -1.811986         0.085122
 H        -0.178925        -0.199194        -1.702951
 H        -2.421383         1.462950        -2.359102
