19
Iteration:  3530
 C        -0.368615         2.654419         0.076216
 C        -0.899271         1.227371         0.097670
 C        -2.315102         0.835861         0.256347
 C        -1.911305        -0.538507        -0.556905
 C        -0.862392        -1.094217         0.436280
 C        -0.071850         0.166878         0.803318
 O         0.845855         0.286561         1.539167
 C        -0.916647         0.296033        -1.434741
 O        -1.652724         1.008362        -2.442779
 H         0.695149         2.793536        -0.318308
 H        -1.136353         3.457254        -0.343402
 H        -0.309119         2.888364         1.182265
 H        -2.555611         0.983901         1.326930
 H        -2.960739         1.480711        -0.313669
 H        -2.563741        -1.168436        -0.989300
 H        -1.308236        -1.479428         1.336575
 H        -0.168458        -1.847709         0.142644
 H        -0.022168        -0.221096        -1.840708
 H        -1.097692         1.824576        -2.532854
