19
Iteration:  1067charge 0 multiplicity 1
 C        -0.440404         2.745923         0.077102
 C        -0.807053         1.211980         0.162518
 C        -2.204966         0.852691         0.773534
 C        -2.049920        -0.454408        -0.137982
 C        -0.862598        -1.223877         0.496015
 C         0.212604         0.066443         0.475206
 O         1.391605        -0.039081         0.237602
 C        -1.298846         0.480236        -1.131053
 O        -2.010215         1.287315        -2.004249
 H         0.710597         2.920434         0.074273
 H        -0.711723         3.212557        -0.903029
 H        -0.954936         3.265508         0.854691
 H        -2.239024         0.812401         1.910392
 H        -2.947658         1.600640         0.377041
 H        -2.940266        -1.089025        -0.301609
 H        -1.174036        -1.543895         1.485843
 H        -0.500660        -1.952634        -0.076134
 H        -0.483924        -0.089580        -1.584684
 H        -1.910515         0.753569        -2.846179
