19
Iteration:  4913
 C        -0.251386         2.619248         0.142179
 C        -0.762994         1.263213        -0.039030
 C        -2.270582         0.792250         0.355250
 C        -1.933921        -0.481378        -0.537824
 C        -0.885437        -1.127414         0.367662
 C        -0.094216         0.164662         0.759319
 O         0.849005         0.318777         1.502095
 C        -1.008065         0.358711        -1.330186
 O        -1.745826         0.997017        -2.436012
 H        -1.029415         3.196478         0.651825
 H         0.690608         2.783316         0.635179
 H        -0.092627         3.180079        -0.824412
 H        -2.579826         0.474302         1.524978
 H        -3.073178         1.434838        -0.066076
 H        -2.698861        -1.110889        -0.871035
 H        -1.312160        -1.591084         1.240298
 H        -0.205518        -1.929020         0.105386
 H        -0.197650        -0.094682        -1.841411
 H        -1.151824         1.543079        -2.890435
