19
Iteration:  2199
 C        -0.330433         2.708386         0.121702
 C        -0.886006         1.251462         0.156986
 C        -2.381445         0.849715         0.352262
 C        -1.968489        -0.488337        -0.428098
 C        -0.866778        -1.179218         0.386881
 C         0.008556         0.171238         0.792256
 O         1.215780         0.175252         1.076764
 C        -1.098736         0.333820        -1.291876
 O        -1.841668         1.092131        -2.233840
 H        -0.183562         2.986505        -0.934317
 H        -1.117875         3.295443         0.469596
 H         0.601804         2.811687         0.632026
 H        -2.904829         0.716824         1.400837
 H        -2.962727         1.461050        -0.434619
 H        -2.769653        -1.171051        -0.910665
 H        -1.314618        -1.630210         1.247201
 H        -0.236644        -1.904149        -0.020669
 H        -0.147158        -0.029698        -1.791159
 H        -1.141628         1.430014        -2.893283
