19
Iteration:  4295
 C        -0.173095         2.659202        -0.069162
 C        -0.719453         1.228554        -0.052143
 C        -2.144210         0.831336         0.248026
 C        -1.883159        -0.526148        -0.445244
 C        -0.774535        -1.114192         0.280484
 C        -0.089273         0.139495         0.807807
 O         0.597597         0.262634         1.852278
 C        -1.038068         0.347523        -1.484365
 O        -1.832538         1.056129        -2.337461
 H         0.952160         2.582761        -0.068699
 H        -0.544832         3.209867        -0.942882
 H        -0.560994         3.178048         0.756409
 H        -2.273286         0.797463         1.385287
 H        -2.985834         1.435984        -0.318742
 H        -2.803140        -1.029978        -0.917147
 H        -1.008365        -1.760431         1.121262
 H        -0.148084        -1.624550        -0.418660
 H        -0.286791        -0.169050        -2.035534
 H        -1.209613         1.499465        -2.872548
