19
Iteration:  1926charge 0 multiplicity 1
 C        -0.371645         2.739540         0.232844
 C        -0.850301         1.245371        -0.017026
 C        -2.374167         0.783982         0.411750
 C        -1.932988        -0.538876        -0.277457
 C        -0.837465        -1.206470         0.582049
 C         0.042174         0.088885         0.544611
 O         1.154185         0.156936         1.074470
 C        -1.072312         0.430694        -1.379812
 O        -1.817779         1.239698        -2.348805
 H         0.084450         2.637806         1.302443
 H         0.402347         2.866660        -0.462274
 H        -1.256322         3.320387         0.109117
 H        -2.429008         0.833527         1.455648
 H        -3.051666         1.444117        -0.073400
 H        -2.664918        -1.220853        -0.733368
 H        -1.176308        -1.206758         1.621379
 H        -0.325418        -2.097507         0.163797
 H        -0.307664         0.037153        -1.982027
 H        -2.362776         0.538792        -2.856667
