19
Iteration:  4083
 C        -0.207535         2.555126         0.118710
 C        -0.823502         1.270366         0.006080
 C        -2.383372         0.733623         0.213591
 C        -1.877372        -0.547007        -0.557149
 C        -0.925792        -1.105383         0.532180
 C        -0.127527         0.128523         0.782303
 O         0.855502         0.352765         1.492759
 C        -0.984258         0.451961        -1.362303
 O        -1.692480         1.056286        -2.387175
 H         0.772751         2.395645         0.398800
 H        -0.219617         2.930514        -0.887077
 H        -0.631730         3.339926         0.654932
 H        -2.710145         0.618712         1.273108
 H        -3.076082         1.319867        -0.452502
 H        -2.441431        -1.264633        -1.063591
 H        -1.356472        -1.322480         1.493992
 H        -0.427730        -2.007444         0.140570
 H        -0.043703         0.104997        -1.871315
 H        -1.003437         1.507412        -2.840782
