19
Iteration:  3418charge 0 multiplicity 1
 C        -0.248910         2.635929        -0.088355
 C        -0.791473         1.207490        -0.125838
 C        -2.331819         0.620832         0.324720
 C        -1.826312        -0.597999        -0.541952
 C        -0.764194        -1.146201         0.443917
 C        -0.063160         0.195424         0.806573
 O         0.636524         0.308256         1.753687
 C        -0.950101         0.449753        -1.434939
 O        -1.699927         1.162438        -2.407757
 H         0.880794         2.558830        -0.224639
 H        -0.718356         3.238393        -0.973950
 H        -0.573828         3.145635         0.846116
 H        -2.486521         0.496152         1.416616
 H        -2.818828         1.485541        -0.086346
 H        -2.394289        -1.268609        -1.069250
 H        -1.233024        -1.633293         1.308969
 H        -0.116906        -1.817332        -0.112983
 H         0.031117         0.126912        -1.862576
 H        -2.324673         1.765349        -2.048820
