19
Iteration:  3224charge 0 multiplicity 1
 C        -0.331257         2.681765         0.057255
 C        -0.761366         1.219281        -0.056262
 C        -2.270562         0.785174         0.230955
 C        -1.907639        -0.575025        -0.520733
 C        -0.868095        -1.164318         0.387076
 C        -0.079652         0.215859         0.809438
 O         0.778753         0.292577         1.631115
 C        -0.946924         0.371355        -1.419006
 O        -1.671215         1.137792        -2.341786
 H         0.737720         2.618175         0.235459
 H        -0.426626         3.229921        -0.924880
 H        -0.768189         3.170892         0.837985
 H        -2.572967         0.616507         1.293710
 H        -3.080536         1.350374        -0.135607
 H        -2.679719        -1.120092        -0.997821
 H        -1.226968        -1.679223         1.277380
 H        -0.079234        -1.829338         0.018831
 H        -0.123108        -0.119124        -1.741478
 H        -1.989851         0.487386        -3.018361
