19
Iteration:  4183charge 0 multiplicity 1
 C        -0.382887         2.665064         0.089839
 C        -0.878011         1.276093         0.056102
 C        -2.451996         0.745872         0.206709
 C        -1.919465        -0.530204        -0.441490
 C        -1.008430        -1.094018         0.536278
 C        -0.149944         0.186794         0.823321
 O         0.994702         0.210263         1.332928
 C        -0.960014         0.363222        -1.292926
 O        -1.469759         1.043680        -2.421879
 H         0.462044         2.779351        -0.542992
 H        -1.150087         3.288818        -0.397539
 H        -0.079207         3.160438         1.058050
 H        -2.716580         0.665296         1.286461
 H        -3.111436         1.548824        -0.341726
 H        -2.641886        -1.004337        -1.069589
 H        -1.551562        -1.511179         1.384678
 H        -0.364548        -1.869445         0.159826
 H         0.009672        -0.020912        -1.574863
 H        -0.717592         1.550920        -2.940807
