19
Iteration:  2538charge 0 multiplicity 1
 C        -0.269279         2.563850         0.087168
 C        -0.703685         1.154252         0.024528
 C        -2.251304         0.796399         0.349053
 C        -1.915980        -0.491572        -0.520080
 C        -0.860840        -1.143824         0.345777
 C         0.007824         0.126921         0.741076
 O         0.873973         0.390756         1.569566
 C        -1.081883         0.329261        -1.389742
 O        -1.812555         1.117173        -2.423596
 H         0.486269         2.813756        -0.699743
 H        -1.104040         3.274777        -0.097936
 H         0.296133         2.811567         0.955962
 H        -2.701621         0.890278         1.271627
 H        -2.877415         1.436758        -0.262218
 H        -2.721129        -1.180635        -0.903448
 H        -1.155372        -1.830981         1.175351
 H        -0.050981        -1.753223        -0.146718
 H        -0.307240        -0.251122        -1.981945
 H        -2.418611         1.652151        -1.966327
