19
Iteration:   577
 C        -0.230978         2.535010        -0.149036
 C        -0.651341         1.131171        -0.044123
 C        -1.917011         0.810736         0.933582
 C        -2.052486        -0.451914        -0.068016
 C        -0.679250        -1.239132         0.158413
 C         0.269605        -0.067232         0.210876
 O         1.444268         0.016823         0.572105
 C        -1.579504         0.584300        -1.192749
 O        -2.552685         1.525605        -1.612013
 H         0.408620         2.905320         0.669712
 H         0.351244         2.659173        -1.092319
 H        -1.046031         3.165048        -0.228813
 H        -1.636668         0.633859         2.049756
 H        -2.723202         1.552424         0.757486
 H        -2.893610        -1.106489        -0.199518
 H        -0.590825        -1.920930         1.020103
 H        -0.496919        -1.802973        -0.758452
 H        -0.940066         0.354634        -2.089067
 H        -3.081199         1.261109        -2.350040
