19
Iteration:  3044charge 0 multiplicity 1
 C        -0.462295         2.559028         0.152515
 C        -0.956393         1.241562         0.141634
 C        -2.400517         0.856938         0.159881
 C        -1.963654        -0.469340        -0.482800
 C        -0.938633        -1.052809         0.521806
 C        -0.169011         0.274646         0.855942
 O         1.024427         0.297042         1.264210
 C        -0.903330         0.258829        -1.375617
 O        -1.367736         1.019998        -2.425754
 H         0.496405         2.349175        -0.343989
 H        -1.069825         3.413865        -0.087013
 H        -0.101632         2.772296         1.254033
 H        -2.949949         0.536702         1.137377
 H        -3.106113         1.558472        -0.514045
 H        -2.753543        -1.264701        -0.784814
 H        -1.243940        -1.449043         1.500032
 H        -0.372328        -1.835242         0.044526
 H        -0.032295        -0.258789        -1.655983
 H        -2.305847         1.095802        -2.323028
