19
Iteration:   821charge 0 multiplicity 1
 C        -0.112897         2.612276         0.154374
 C        -0.732123         1.243022         0.056268
 C        -2.099180         0.922874         0.847965
 C        -1.998990        -0.370764        -0.093526
 C        -0.769803        -1.128985         0.360073
 C         0.210813         0.011906         0.380708
 O         1.424611        -0.007399         0.323461
 C        -1.442992         0.472075        -1.196824
 O        -2.473495         1.123236        -2.016442
 H         0.958465         2.582677         0.175967
 H        -0.353226         3.367354        -0.602136
 H        -0.627842         3.132094         1.100862
 H        -2.012263         0.798918         1.993937
 H        -2.871487         1.669716         0.682448
 H        -2.836995        -1.069854        -0.278147
 H        -0.871701        -1.412817         1.354528
 H        -0.632262        -2.030516        -0.234138
 H        -0.803182        -0.101853        -1.957735
 H        -2.301419         2.061858        -1.955976
