19
Iteration:   649
 C         0.116756         2.539732        -0.354388
 C        -0.621298         1.208570        -0.144576
 C        -1.799085         0.754224         0.823322
 C        -2.018633        -0.545010        -0.182894
 C        -0.649699        -1.212516        -0.029384
 C         0.270324        -0.035372         0.288940
 O         1.258157         0.110520         1.028685
 C        -1.636515         0.568331        -1.283591
 O        -2.777654         1.471137        -1.468057
 H         0.485237         2.684885        -1.400712
 H        -0.692768         3.345414        -0.191954
 H         0.909812         2.808077         0.369800
 H        -1.465452         0.641809         1.822419
 H        -2.562345         1.491021         0.725875
 H        -2.997003        -1.079021        -0.224372
 H        -0.604749        -2.018002         0.806889
 H        -0.255536        -1.650757        -0.987440
 H        -1.395578         0.294750        -2.290463
 H        -3.536686         0.857961        -1.666885
