19
Iteration:   408
 C        -0.193210         2.636702        -0.238110
 C        -0.620974         1.125985        -0.135268
 C        -1.743116         0.750662         0.911568
 C        -2.007764        -0.465149        -0.030647
 C        -0.673498        -1.156685         0.056745
 C         0.239810        -0.021408         0.146882
 O         1.391837        -0.056738         0.547993
 C        -1.613761         0.573252        -1.128232
 O        -2.708848         1.424190        -1.430546
 H         0.848192         2.622355         0.085009
 H        -0.384241         3.111857        -1.186139
 H        -0.768976         3.169410         0.603630
 H        -1.488775         0.626047         1.937477
 H        -2.484765         1.543460         0.884537
 H        -2.951520        -1.123925        -0.015345
 H        -0.719199        -1.758232         0.959619
 H        -0.369019        -1.798303        -0.830482
 H        -1.249310         0.164786        -2.125530
 H        -2.492255         2.247906        -1.861911
