19
Iteration:  4228
 C        -0.179147         2.594297         0.007836
 C        -0.764654         1.191519        -0.074598
 C        -2.308755         0.783518         0.204598
 C        -1.901869        -0.544962        -0.565903
 C        -0.923585        -1.119395         0.524771
 C        -0.129903         0.127394         0.881200
 O         0.813564         0.343431         1.584116
 C        -1.034966         0.362740        -1.400125
 O        -1.713519         1.145236        -2.349727
 H         0.897763         2.656254        -0.216434
 H        -0.707045         3.355295        -0.572370
 H        -0.301772         3.011885         1.029424
 H        -2.627761         0.601688         1.289674
 H        -3.180002         1.187649        -0.506226
 H        -2.415328        -1.446663        -0.989048
 H        -1.366809        -1.672681         1.356509
 H        -0.206958        -1.763193         0.054388
 H        -0.168684        -0.138630        -1.785730
 H        -1.091853         1.664580        -3.004096
