19
Iteration:  4573
 C        -0.111119         2.564867        -0.022647
 C        -0.748199         1.236110        -0.071248
 C        -2.190544         0.760373         0.280504
 C        -1.888070        -0.479399        -0.516809
 C        -0.826710        -1.122498         0.322450
 C        -0.110645         0.146156         0.859906
 O         0.630566         0.347492         1.748884
 C        -0.935817         0.433749        -1.357424
 O        -1.890733         0.982116        -2.422772
 H         0.971113         2.556889         0.283598
 H        -0.149078         3.091331        -1.014844
 H        -0.697443         3.299954         0.623732
 H        -2.378245         0.523741         1.395834
 H        -2.898025         1.570008        -0.151571
 H        -2.520185        -1.200734        -1.094490
 H        -1.209082        -1.667521         1.237584
 H        -0.141041        -1.724077        -0.380138
 H        -0.088556        -0.046667        -1.939891
 H        -1.485200         1.859236        -2.770089
