19
Iteration:  4278
 C        -0.189793         2.678517        -0.076683
 C        -0.652736         1.237688        -0.134882
 C        -2.210533         0.872525         0.337836
 C        -1.908264        -0.413377        -0.518251
 C        -0.774223        -1.272661         0.293863
 C        -0.119111         0.150631         0.819219
 O         0.609824         0.253546         1.831439
 C        -0.951853         0.384586        -1.379534
 O        -1.863058         0.982393        -2.394838
 H         0.863274         2.891664         0.010381
 H        -0.490641         3.235336        -0.988294
 H        -0.534006         3.286061         0.846860
 H        -2.429398         0.796173         1.398845
 H        -2.808604         1.544524        -0.163779
 H        -2.669291        -1.034676        -0.874348
 H        -1.090398        -2.033252         1.039327
 H        -0.007132        -1.802972        -0.378367
 H        -0.035366        -0.127984        -1.858740
 H        -1.558929         1.819775        -2.770854
