19
Iteration:   890
 C        -0.135451         2.483353        -0.429952
 C        -0.661073         1.074394        -0.102608
 C        -1.932420         0.760498         0.766853
 C        -1.986072        -0.475555        -0.173868
 C        -0.600782        -1.199894         0.187703
 C         0.216758         0.022271         0.391387
 O         1.219957         0.102298         1.067343
 C        -1.481826         0.577692        -1.306482
 O        -2.587414         1.497180        -1.618573
 H        -0.317422         2.723658        -1.523894
 H        -0.573433         3.256148         0.236304
 H         0.965333         2.485231        -0.199392
 H        -1.677458         0.532637         1.896239
 H        -2.811532         1.489874         0.703214
 H        -2.806894        -1.096103        -0.477176
 H        -0.636662        -1.870311         1.015594
 H        -0.290884        -1.742086        -0.639645
 H        -0.892399         0.269803        -2.227953
 H        -2.594842         1.463858        -2.613737
