19
Iteration:  4644charge 0 multiplicity 1
 C        -0.410317         2.643865        -0.041936
 C        -0.835674         1.230004         0.042637
 C        -2.401915         0.839964         0.257579
 C        -1.903259        -0.484437        -0.487900
 C        -0.924363        -1.148483         0.468326
 C        -0.079629         0.112018         0.820566
 O         0.880889         0.268164         1.521568
 C        -0.878435         0.343294        -1.293556
 O        -1.587242         1.108826        -2.416119
 H         0.462250         2.764983        -0.657149
 H        -1.109184         3.352908        -0.390917
 H        -0.088283         2.964851         0.910635
 H        -2.680953         0.650690         1.368934
 H        -3.146794         1.343106        -0.295558
 H        -2.632727        -1.087483        -0.999688
 H        -1.380369        -1.453621         1.411955
 H        -0.449691        -1.968591        -0.033836
 H         0.039853        -0.091319        -1.623804
 H        -0.983095         1.071851        -3.227247
