19
Iteration:  1904
 C        -0.416022         2.617991         0.209299
 C        -0.849111         1.253645         0.118770
 C        -2.310308         0.752868         0.461042
 C        -1.984039        -0.455005        -0.436854
 C        -0.925346        -1.105877         0.535790
 C         0.007848         0.206112         0.698380
 O         1.248441         0.166752         0.877610
 C        -1.119865         0.424059        -1.297574
 O        -1.734210         1.142059        -2.295244
 H        -0.414698         2.771013         1.339274
 H         0.556880         2.644651        -0.188634
 H        -1.199494         3.132743        -0.277142
 H        -2.546885         0.589988         1.448373
 H        -3.027415         1.387956        -0.008259
 H        -2.848142        -1.031645        -0.797628
 H        -1.496083        -1.332700         1.449229
 H        -0.247157        -1.903570         0.205498
 H        -0.241191        -0.035549        -1.698486
 H        -2.060908         0.529127        -2.939559
