19
Iteration:  2689charge 0 multiplicity 1
 C        -0.391306         2.757263         0.135822
 C        -0.925376         1.324573         0.081603
 C        -2.414854         0.841337         0.292382
 C        -1.996416        -0.527093        -0.399518
 C        -0.835440        -1.168680         0.457361
 C        -0.087765         0.133486         0.717158
 O         0.985100         0.211725         1.287668
 C        -0.943281         0.381766        -1.304517
 O        -1.497963         0.981763        -2.462331
 H        -1.137891         3.586740         0.281134
 H         0.213469         2.737263         1.086805
 H         0.387650         3.112328        -0.519434
 H        -2.766520         0.679739         1.428016
 H        -3.171015         1.418330        -0.396783
 H        -2.751237        -1.111591        -0.832125
 H        -1.202664        -1.671212         1.375152
 H        -0.294010        -1.947445        -0.106236
 H        -0.101498        -0.220180        -1.640479
 H        -2.299944         1.416363        -2.323304
