19
Iteration:  1814charge 0 multiplicity 1
 C        -0.273999         2.602974        -0.025636
 C        -0.747799         1.175895        -0.030688
 C        -2.138879         0.833526         0.490299
 C        -1.902681        -0.512505        -0.385737
 C        -0.805080        -1.196623         0.399868
 C         0.035309         0.038243         0.556511
 O         1.029579         0.194953         1.239285
 C        -1.166212         0.508621        -1.355888
 O        -2.062659         1.227288        -2.095966
 H        -1.076225         3.249120        -0.379265
 H        -0.013243         2.938617         1.019220
 H         0.542419         2.812020        -0.765498
 H        -2.263023         0.713796         1.539048
 H        -2.895426         1.502458         0.134135
 H        -2.769503        -1.106219        -0.742239
 H        -1.169565        -1.538375         1.362379
 H        -0.262546        -1.979011        -0.079510
 H        -0.282401         0.216050        -1.869747
 H        -1.767782         1.046520        -2.962287
