19
Iteration:   411
 C        -0.193031         2.645807        -0.196948
 C        -0.622052         1.162921        -0.131451
 C        -1.756016         0.726268         0.918069
 C        -2.015626        -0.435357        -0.035131
 C        -0.672664        -1.168282         0.063490
 C         0.243478        -0.008826         0.153169
 O         1.391198        -0.068903         0.512850
 C        -1.615261         0.560386        -1.146969
 O        -2.682134         1.410430        -1.428351
 H         0.890329         2.701994        -0.040384
 H        -0.562461         3.060196        -1.200539
 H        -0.692645         3.100808         0.565229
 H        -1.581503         0.591887         2.075688
 H        -2.526320         1.555006         0.807900
 H        -2.907581        -1.079201         0.056385
 H        -0.806803        -1.746884         1.024644
 H        -0.372882        -1.737160        -0.764472
 H        -1.276950         0.143227        -2.056266
 H        -2.414599         2.155622        -1.986348
