19
Iteration:   854
 C        -0.029347         2.627713        -0.081991
 C        -0.691052         1.216098        -0.071129
 C        -1.992457         0.821991         0.832680
 C        -2.019702        -0.404970        -0.117821
 C        -0.758464        -1.257794         0.246464
 C         0.174479         0.011008         0.366929
 O         1.337890         0.132977         0.698008
 C        -1.507215         0.448006        -1.254597
 O        -2.554914         1.251645        -1.845018
 H         0.809623         2.718838        -0.768231
 H        -0.765770         3.434179        -0.259152
 H         0.500266         2.714049         1.000291
 H        -1.684123         0.636277         1.900733
 H        -2.819536         1.517155         0.752177
 H        -2.854758        -1.083475        -0.324174
 H        -0.760871        -1.755425         1.170416
 H        -0.547697        -1.961727        -0.570544
 H        -0.807419        -0.004096        -2.024309
 H        -2.199477         2.094301        -2.251347
