19
Iteration:  4545
 C        -0.193175         2.695501        -0.082094
 C        -0.786522         1.266435        -0.068084
 C        -2.200190         0.901544         0.314594
 C        -1.904068        -0.523452        -0.424771
 C        -0.750046        -1.189966         0.300735
 C        -0.103794         0.109485         0.765389
 O         0.641812         0.235709         1.768540
 C        -0.989068         0.334376        -1.349419
 O        -1.798095         1.023115        -2.421136
 H         0.753113         2.705656         0.413935
 H        -0.107360         3.214569        -1.026252
 H        -0.896815         3.385027         0.378971
 H        -2.618388         0.967715         1.307312
 H        -2.871710         1.540712        -0.275723
 H        -2.612116        -1.171106        -0.907653
 H        -0.925793        -1.816341         1.179936
 H        -0.094842        -1.786511        -0.337446
 H        -0.220965        -0.211960        -1.855339
 H        -1.270434         1.907771        -2.568633
