19
Iteration:  1749
 C        -0.027824         2.499271        -0.125003
 C        -0.730259         1.217089        -0.201538
 C        -2.070942         0.772120         0.629258
 C        -1.874350        -0.469828        -0.388060
 C        -0.635656        -1.200827         0.164697
 C         0.091439         0.075259         0.552866
 O         0.807860         0.284643         1.517266
 C        -1.265880         0.519347        -1.348068
 O        -2.291755         1.160432        -2.084656
 H         0.424691         2.923481        -1.027078
 H        -0.725498         3.315644         0.247073
 H         0.742592         2.439314         0.683716
 H        -1.951669         0.580661         1.627745
 H        -2.922951         1.370561         0.421248
 H        -2.676630        -1.198612        -0.644882
 H        -0.877888        -1.881052         1.003865
 H        -0.167713        -1.862720        -0.608763
 H        -0.522311         0.257652        -2.122153
 H        -1.913626         1.996819        -2.572222
