19
Iteration:  3991
 C        -0.185831         2.589914        -0.076390
 C        -0.676006         1.156849        -0.058402
 C        -2.214908         0.772788         0.357399
 C        -1.825039        -0.485749        -0.573357
 C        -0.800888        -1.113653         0.336263
 C        -0.188467         0.151911         0.854873
 O         0.619268         0.298658         1.770250
 C        -0.998460         0.455228        -1.442018
 O        -1.817773         1.039828        -2.358180
 H         0.952400         2.704611         0.014208
 H        -0.444096         3.003347        -1.088607
 H        -0.674892         3.400621         0.612900
 H        -2.342650         0.536006         1.363422
 H        -2.715172         1.566589        -0.092284
 H        -2.726992        -1.021190        -1.058072
 H        -1.091723        -1.674858         1.281884
 H        -0.033020        -1.786987        -0.122929
 H        -0.194777        -0.083416        -1.966139
 H        -1.368218         1.620302        -2.970809
