19
Iteration:  2576charge 0 multiplicity 1
 C        -0.134936         2.721620        -0.070665
 C        -0.771777         1.209498        -0.014873
 C        -2.170612         0.718951         0.502152
 C        -1.812375        -0.548424        -0.476279
 C        -0.725588        -1.183208         0.402576
 C        -0.093514         0.158471         0.711233
 O         0.681340         0.240606         1.645145
 C        -1.126825         0.487635        -1.437323
 O        -1.802076         1.094677        -2.482404
 H         0.023785         2.933656        -1.123296
 H        -0.869939         3.404096         0.367033
 H         0.770681         2.681179         0.635396
 H        -2.546142         0.744646         1.640265
 H        -2.890420         1.410770        -0.047933
 H        -2.645986        -1.070880        -0.946738
 H        -1.118797        -1.583636         1.315048
 H        -0.167851        -1.846730        -0.246496
 H        -0.344402        -0.041874        -2.087947
 H        -2.727667         1.240714        -2.177177
