19
Iteration:  4000
 C        -0.211862         2.646993        -0.120379
 C        -0.607889         1.234339        -0.030035
 C        -2.168058         0.806748         0.356003
 C        -1.892922        -0.495597        -0.572649
 C        -0.772887        -1.159231         0.371911
 C        -0.130896         0.129283         0.839041
 O         0.575553         0.267433         1.784115
 C        -0.964608         0.382838        -1.423028
 O        -1.867444         1.064915        -2.407618
 H         0.944359         2.744858         0.107363
 H        -0.377308         2.833196        -1.266037
 H        -0.809317         3.273127         0.638469
 H        -2.441069         0.601095         1.361267
 H        -2.998852         1.553673         0.121043
 H        -2.729918        -1.140884        -0.957708
 H        -1.239919        -1.860869         1.097708
 H         0.056491        -1.643844        -0.170190
 H        -0.046228         0.145851        -1.905831
 H        -1.188979         1.640757        -2.755916
