19
Iteration:  1779charge 0 multiplicity 1
 C        -0.027952         2.645671        -0.059004
 C        -0.655726         1.218012        -0.056557
 C        -2.101359         0.776684         0.475216
 C        -1.966854        -0.541172        -0.454356
 C        -0.644399        -1.136199         0.200139
 C         0.088196         0.097187         0.712549
 O         0.984032         0.205163         1.514708
 C        -1.400156         0.440941        -1.378276
 O        -2.280107         1.202512        -2.152248
 H        -0.416471         3.056652        -0.928320
 H        -0.415084         3.205912         0.860590
 H         1.095154         2.453311         0.152529
 H        -2.198528         0.687326         1.622458
 H        -2.825369         1.518464         0.032036
 H        -2.765498        -1.302091        -0.593965
 H        -0.924711        -1.904039         0.846005
 H         0.020617        -1.560530        -0.488907
 H        -0.744672         0.133045        -2.171861
 H        -2.076787         1.190504        -3.062160
