19
Iteration:  1446charge 0 multiplicity 1
 C        -0.060813         2.508292        -0.037308
 C        -0.673938         1.236337        -0.102478
 C        -2.050792         0.710582         0.551733
 C        -1.925909        -0.445616        -0.365451
 C        -0.641347        -1.207824         0.139470
 C         0.135767         0.023807         0.509998
 O         1.020077         0.232988         1.360742
 C        -1.326969         0.563812        -1.365623
 O        -2.441486         1.230077        -1.927870
 H         0.796345         2.639316        -0.865818
 H        -0.899686         3.205623        -0.392951
 H         0.399311         2.847640         0.865498
 H        -2.027634         0.679262         1.681713
 H        -2.861857         1.443430         0.338151
 H        -2.745015        -1.062890        -0.694614
 H        -0.872628        -1.635800         1.088021
 H        -0.133606        -1.864382        -0.481008
 H        -0.731342         0.230109        -2.285299
 H        -2.142958         1.448469        -2.799711
