19
Iteration:  3461
 C        -0.226772         2.623182        -0.084943
 C        -0.669611         1.143924        -0.096937
 C        -2.287983         0.748224         0.256436
 C        -1.856830        -0.624038        -0.541703
 C        -0.782195        -1.154044         0.361738
 C        -0.086216         0.177647         0.802055
 O         0.633970         0.374720         1.799768
 C        -0.974339         0.402106        -1.407001
 O        -1.739555         1.225109        -2.344413
 H         0.876897         2.524591        -0.136771
 H        -0.664129         3.281772        -0.870749
 H        -0.459960         2.970446         0.920104
 H        -2.776413         0.483214         1.238188
 H        -3.070935         1.261383        -0.374883
 H        -2.559817        -1.344773        -0.962241
 H        -0.911587        -1.816374         1.243859
 H         0.035260        -1.624624        -0.259789
 H        -0.078291         0.036007        -1.846316
 H        -2.572496         0.850811        -2.369345
