19
Iteration:  2233
 C        -0.235833         2.557219         0.132476
 C        -0.796118         1.225229        -0.116813
 C        -2.180668         0.771792         0.469559
 C        -1.935393        -0.474777        -0.382396
 C        -0.826100        -1.126922         0.412574
 C        -0.030674         0.188867         0.655698
 O         0.990201         0.252811         1.322067
 C        -1.101770         0.397308        -1.423731
 O        -1.958709         1.075295        -2.356912
 H        -0.369987         3.290912        -0.684864
 H        -0.753152         2.980547         0.973840
 H         0.771540         2.531572         0.461096
 H        -2.417606         0.614499         1.623628
 H        -3.070560         1.375461         0.066441
 H        -2.761445        -1.173553        -0.677326
 H        -1.155267        -1.441713         1.382928
 H        -0.177104        -1.838299        -0.047427
 H        -0.165811        -0.079775        -1.855349
 H        -1.605300         2.033987        -2.334048
