19
Iteration:  2935
 C        -0.281146         2.598057        -0.038517
 C        -0.839734         1.204831         0.023620
 C        -2.301983         0.748252         0.339040
 C        -1.926860        -0.508701        -0.590896
 C        -0.728423        -1.121874         0.409772
 C        -0.171284         0.175790         0.812411
 O         0.770072         0.322608         1.583388
 C        -1.022296         0.391574        -1.365893
 O        -1.588182         1.070439        -2.412309
 H         0.590805         2.618484         0.590508
 H         0.136912         2.819509        -0.965373
 H        -0.901064         3.389643         0.422470
 H        -2.531825         0.672033         1.425572
 H        -2.859749         1.514767        -0.282699
 H        -2.812550        -1.225210        -0.841605
 H        -1.179204        -1.734061         1.195732
 H         0.027591        -1.597471        -0.199760
 H        -0.081850         0.006033        -1.694378
 H        -2.512910         1.404252        -2.129545
