19
Iteration:  2499
 C        -0.350871         2.652893         0.064891
 C        -0.874523         1.260039        -0.075093
 C        -2.364323         0.718677         0.395091
 C        -1.911834        -0.521713        -0.436863
 C        -0.865330        -1.042961         0.503872
 C        -0.058720         0.173743         0.712800
 O         0.990481         0.173922         1.321997
 C        -1.008960         0.391856        -1.343010
 O        -1.642024         1.103372        -2.385245
 H         0.713389         2.504224        -0.001218
 H        -0.707723         3.323375        -0.749983
 H        -0.726577         3.113598         1.012787
 H        -2.480739         0.368485         1.533174
 H        -3.220721         1.269355        -0.083720
 H        -2.459652        -1.190224        -1.117285
 H        -1.428274        -1.395305         1.358937
 H        -0.202256        -1.803048         0.075874
 H         0.009268         0.060387        -1.609599
 H        -2.324175         1.731409        -1.944823
