19
Iteration:  1548charge 0 multiplicity 1
 C        -0.306124         2.593572         0.046236
 C        -0.786144         1.212700         0.011072
 C        -2.245911         0.732740         0.575272
 C        -1.994846        -0.545501        -0.405552
 C        -0.728721        -1.140797         0.364772
 C         0.103196         0.058271         0.541590
 O         1.205593         0.161655         1.059933
 C        -1.282220         0.442470        -1.292005
 O        -2.009365         1.374430        -2.080877
 H        -1.112690         3.344366         0.092095
 H         0.412034         2.949169         0.786051
 H         0.229680         2.722476        -0.978430
 H        -2.240028         0.557230         1.653899
 H        -3.017813         1.397089         0.230448
 H        -2.705485        -1.303183        -0.739478
 H        -1.050189        -1.479925         1.357247
 H        -0.205884        -1.889187        -0.205291
 H        -0.468544         0.121795        -2.011366
 H        -2.561397         0.780075        -2.617244
