19
Iteration:  1048charge 0 multiplicity 1
 C        -0.407180         2.632611         0.101913
 C        -0.774037         1.201632         0.179455
 C        -2.166822         0.811630         0.742799
 C        -2.063771        -0.403615        -0.092959
 C        -0.815788        -1.059055         0.553216
 C         0.128238         0.085096         0.349957
 O         1.302910        -0.032760         0.258499
 C        -1.271598         0.396541        -1.221124
 O        -2.049929         1.275190        -1.948357
 H         0.504818         2.870368         0.563379
 H        -0.308629         2.889925        -0.958351
 H        -1.190963         3.266264         0.505077
 H        -2.214239         0.668583         1.814234
 H        -2.904687         1.501695         0.401711
 H        -2.841909        -1.180525        -0.410299
 H        -0.741723        -1.262060         1.642699
 H        -0.323435        -1.990363         0.047474
 H        -0.582005        -0.177164        -1.851556
 H        -1.467080         1.563956        -2.766211
