19
Iteration:  3163
 C        -0.173819         2.548245        -0.076592
 C        -0.701114         1.201265        -0.130905
 C        -2.189533         0.672482         0.300459
 C        -1.822556        -0.541789        -0.564957
 C        -0.752398        -1.112989         0.413840
 C        -0.119804         0.152785         0.838138
 O         0.570163         0.411497         1.834401
 C        -1.066058         0.438113        -1.479125
 O        -1.828089         1.154867        -2.331489
 H         0.741973         2.365251        -0.708149
 H        -0.822278         3.297200        -0.544866
 H         0.214608         2.919807         0.986637
 H        -2.305404         0.191483         1.269852
 H        -2.989866         1.267934        -0.131198
 H        -2.589956        -1.356963        -0.854582
 H        -1.210081        -1.789812         1.170256
 H         0.027645        -1.617195        -0.196411
 H        -0.193602        -0.095936        -2.173948
 H        -1.335408         1.482009        -3.124052
