19
Iteration:  3630
 C        -0.464123         2.708909         0.125160
 C        -0.851544         1.215586         0.070364
 C        -2.340722         0.865388         0.304037
 C        -1.948838        -0.475965        -0.455335
 C        -0.907337        -1.138202         0.495465
 C        -0.112945         0.130698         0.796795
 O         0.953896         0.225849         1.348513
 C        -0.966581         0.340229        -1.309915
 O        -1.450131         1.081758        -2.468566
 H         0.607148         2.908537         0.380497
 H        -0.804859         3.124612        -0.860878
 H        -1.187194         3.253846         0.882242
 H        -2.921976         0.842484         1.281517
 H        -2.809483         1.318408        -0.619468
 H        -2.737899        -1.021198        -0.921434
 H        -1.278841        -1.643804         1.393580
 H        -0.394525        -1.887556        -0.078256
 H         0.021985        -0.057206        -1.514596
 H        -1.909958         0.494847        -3.008780
