19
Iteration:  3734
 C        -0.223071         2.609387        -0.142617
 C        -0.774832         1.203351        -0.121503
 C        -2.256660         0.812658         0.349312
 C        -1.828769        -0.483121        -0.417377
 C        -0.787373        -1.248114         0.427436
 C        -0.060987         0.108172         0.773263
 O         0.596702         0.286633         1.775973
 C        -0.999971         0.464879        -1.375325
 O        -1.756770         1.078942        -2.485025
 H         0.656584         2.620174        -0.847226
 H        -0.933543         3.438307        -0.512432
 H         0.125324         2.764370         0.941127
 H        -2.454472         0.667202         1.346514
 H        -2.937079         1.454736        -0.121536
 H        -2.675980        -1.063039        -0.877011
 H        -1.039511        -1.815640         1.323792
 H         0.101994        -1.656475        -0.092874
 H        -0.077276         0.073655        -1.917235
 H        -1.514091         2.067627        -2.476836
