19
Iteration:  1522charge 0 multiplicity 1
 C        -0.247703         2.569378        -0.144451
 C        -0.731254         1.204087        -0.132705
 C        -2.109566         0.717229         0.667403
 C        -1.977169        -0.504285        -0.341079
 C        -0.679622        -1.295634         0.205388
 C         0.072610         0.048194         0.589938
 O         1.078525         0.243158         1.266119
 C        -1.298227         0.449628        -1.349366
 O        -2.083295         1.427011        -1.992246
 H        -1.024349         3.328859        -0.550546
 H        -0.148323         3.010552         0.886853
 H         0.669069         2.662141        -0.642100
 H        -2.046920         0.424868         1.777857
 H        -3.049965         1.272156         0.397149
 H        -2.906048        -1.053698        -0.528325
 H        -0.864742        -1.966876         1.017288
 H        -0.201691        -1.695211        -0.666455
 H        -0.583058         0.164701        -2.084290
 H        -2.589202         0.888509        -2.593212
