19
Iteration:   642charge 0 multiplicity 1
 C         0.109662         2.542204        -0.368269
 C        -0.643698         1.178463        -0.167159
 C        -1.789429         0.703545         0.824445
 C        -1.958558        -0.501187        -0.164410
 C        -0.675187        -1.253225        -0.035479
 C         0.296316        -0.039650         0.273540
 O         1.229104         0.143047         1.024138
 C        -1.674974         0.633436        -1.238220
 O        -2.758617         1.480139        -1.453749
 H         0.705671         2.413120        -1.347612
 H        -0.664307         3.353830        -0.551436
 H         0.758285         2.843322         0.414234
 H        -1.608080         0.600707         1.899479
 H        -2.626078         1.397165         0.747769
 H        -2.826333        -1.135306        -0.277567
 H        -0.668439        -2.035605         0.721158
 H        -0.317669        -1.711594        -0.920487
 H        -1.183408         0.222237        -2.192095
 H        -3.552899         0.940327        -1.768862
