19
Iteration:  3516charge 0 multiplicity 1
 C        -0.358303         2.667294         0.109859
 C        -0.779165         1.223464        -0.071572
 C        -2.315307         0.808636         0.279158
 C        -1.863845        -0.458770        -0.505268
 C        -0.853907        -1.187677         0.411654
 C        -0.080649         0.160086         0.838882
 O         0.830768         0.317305         1.635570
 C        -1.007175         0.386457        -1.412686
 O        -1.678708         1.014807        -2.445313
 H         0.638646         2.701154        -0.376090
 H        -1.000864         3.363397        -0.516457
 H        -0.266389         2.994703         1.110010
 H        -2.682379         0.425421         1.286841
 H        -3.035647         1.395819        -0.298973
 H        -2.635825        -1.098126        -0.958090
 H        -1.355842        -1.657149         1.270846
 H        -0.245660        -1.922931        -0.186624
 H        -0.128960        -0.087544        -1.727055
 H        -1.096812         1.391116        -3.108715
