19
Iteration:  2045
 C        -0.173253         2.688679        -0.106220
 C        -0.581408         1.170469        -0.116197
 C        -2.108770         0.710935         0.407608
 C        -1.858194        -0.503818        -0.419736
 C        -0.654412        -1.331459         0.279251
 C        -0.036000         0.084079         0.660862
 O         0.746693         0.316064         1.521103
 C        -1.201978         0.391353        -1.367311
 O        -2.066261         1.303260        -2.086391
 H         0.927933         2.772662        -0.136262
 H        -0.504926         3.250921        -0.906946
 H        -0.505916         3.111971         0.804382
 H        -2.253964         0.736760         1.574941
 H        -2.788387         1.429903        -0.129608
 H        -2.693208        -1.154625        -0.726433
 H        -1.064640        -1.857471         1.093734
 H        -0.054191        -1.769520        -0.443511
 H        -0.370056         0.079842        -2.095768
 H        -2.694007         0.984781        -2.704070
