19
Iteration:  1958
 C        -0.296231         2.560994         0.029902
 C        -0.709627         1.162671         0.048072
 C        -2.215976         0.766947         0.399908
 C        -1.948758        -0.489590        -0.441807
 C        -0.805251        -1.077267         0.332475
 C         0.004581         0.127529         0.683765
 O         1.032303         0.259910         1.299497
 C        -1.123773         0.418514        -1.361265
 O        -1.983728         1.216942        -2.175455
 H         0.547626         2.678227         0.842179
 H         0.080433         2.706701        -0.955362
 H        -1.094183         3.241642         0.272173
 H        -2.333133         0.732858         1.528018
 H        -2.825037         1.586862         0.045143
 H        -2.681630        -1.209483        -0.838013
 H        -1.119999        -1.677846         1.161131
 H        -0.166624        -1.786099        -0.175784
 H        -0.325189        -0.091397        -1.933998
 H        -2.195445         0.572312        -2.887570
