19
Iteration:  4565
 C        -0.116729         2.642093        -0.031565
 C        -0.692267         1.215819        -0.099576
 C        -2.246849         0.818124         0.294018
 C        -1.881465        -0.446604        -0.506788
 C        -0.787547        -1.170277         0.312176
 C        -0.157715         0.136488         0.825722
 O         0.647003         0.331542         1.769295
 C        -0.983486         0.424362        -1.414798
 O        -1.829607         0.936697        -2.365893
 H         0.856739         2.610334         0.317718
 H        -0.141884         3.056962        -1.027097
 H        -0.732802         3.357219         0.561128
 H        -2.384509         0.749616         1.471825
 H        -3.221143         1.419896        -0.034036
 H        -2.690183        -0.995397        -1.002319
 H        -1.174018        -2.010830         0.936937
 H        -0.098766        -1.795990        -0.357962
 H        -0.075351         0.043410        -1.890839
 H        -1.510178         1.840070        -2.635649
