19
Iteration:  4985
 C        -0.427452         2.717605         0.099182
 C        -0.887272         1.216121         0.070363
 C        -2.387791         0.779800         0.195543
 C        -1.904245        -0.510677        -0.447416
 C        -1.039515        -1.164506         0.617799
 C        -0.140145         0.164058         0.760702
 O         1.063464         0.199709         1.120689
 C        -0.922944         0.350548        -1.301478
 O        -1.521637         1.103909        -2.239708
 H        -1.302484         3.391058         0.270985
 H         0.374927         3.007426         0.862498
 H         0.003206         2.995482        -0.883688
 H        -2.712230         0.773018         1.137911
 H        -3.012731         1.437164        -0.464316
 H        -2.652508        -1.177149        -1.054388
 H        -1.690975        -1.237408         1.540645
 H        -0.650262        -2.199887         0.468562
 H         0.008887        -0.087730        -1.695783
 H        -0.988149         1.610763        -2.884583
