19
Iteration:  4159
 C        -0.515393         2.724656         0.154692
 C        -0.932567         1.298658         0.059114
 C        -2.396136         0.873878         0.283788
 C        -1.909788        -0.472573        -0.509735
 C        -0.971819        -1.074446         0.608425
 C        -0.129226         0.115386         0.803316
 O         1.013926         0.117099         1.270001
 C        -0.931055         0.349225        -1.299295
 O        -1.429236         0.964989        -2.525908
 H         0.390888         2.976027        -0.383271
 H        -1.335643         3.317909        -0.336384
 H        -0.369817         3.194852         1.275268
 H        -2.583603         0.810819         1.325290
 H        -3.001877         1.638345        -0.168945
 H        -2.665842        -1.102001        -0.871963
 H        -1.707743        -1.396979         1.330571
 H        -0.285022        -1.936997         0.441368
 H        -0.089191        -0.220635        -1.614405
 H        -0.741848         1.627798        -2.785258
