19
Iteration:  3540
 C        -0.359149         2.654929         0.142215
 C        -0.837315         1.197670         0.018739
 C        -2.340579         0.772820         0.164863
 C        -1.915927        -0.539327        -0.506115
 C        -0.883962        -1.061399         0.514116
 C        -0.165643         0.197006         0.785860
 O         0.901890         0.259751         1.458750
 C        -0.963987         0.313557        -1.364690
 O        -1.581822         1.028578        -2.423606
 H         0.597313         2.849502        -0.439366
 H        -1.210449         3.243776        -0.456748
 H        -0.299106         3.087505         1.144799
 H        -2.714864         0.773313         1.243249
 H        -2.867976         1.422395        -0.503316
 H        -2.574706        -1.169781        -0.917081
 H        -1.281894        -1.372557         1.463618
 H        -0.231626        -1.790950         0.053049
 H         0.004296        -0.033199        -1.591535
 H        -1.416497         1.956231        -2.289529
