19
Iteration:  2614charge 0 multiplicity 1
 C        -0.272946         2.570040        -0.101069
 C        -0.772125         1.192744        -0.116489
 C        -2.229947         0.807987         0.333018
 C        -1.890630        -0.473814        -0.474979
 C        -0.747513        -1.133251         0.383032
 C        -0.143425         0.164752         0.867662
 O         0.807734         0.260093         1.641978
 C        -1.033407         0.336730        -1.477707
 O        -1.763791         1.149777        -2.306752
 H        -0.501785         3.148575        -1.014334
 H        -0.654264         3.170335         0.743464
 H         0.774202         2.616045        -0.018815
 H        -2.505852         0.699096         1.404632
 H        -2.881888         1.564571        -0.176680
 H        -2.537788        -1.211693        -0.962809
 H        -1.019309        -1.949873         1.113149
 H         0.012902        -1.645227        -0.257406
 H        -0.138440         0.005288        -1.901400
 H        -2.647488         1.474815        -1.916388
