19
Iteration:   714charge 0 multiplicity 1
 C        -0.187774         2.565608        -0.094321
 C        -0.713917         1.156724        -0.020548
 C        -1.905070         0.768398         0.924622
 C        -2.061469        -0.407169        -0.080433
 C        -0.790079        -1.127217         0.294678
 C         0.220632         0.009785         0.306383
 O         1.414323         0.049300         0.485065
 C        -1.530090         0.500752        -1.192936
 O        -2.421623         1.421654        -1.810936
 H        -0.916894         3.360372         0.061641
 H         0.630033         2.568574         0.669510
 H         0.314615         2.765092        -1.023965
 H        -1.592311         0.696610         2.036525
 H        -2.846601         1.311966         0.885156
 H        -2.980658        -1.013278        -0.047063
 H        -0.971587        -1.859576         1.170386
 H        -0.506812        -1.788345        -0.573365
 H        -0.876854         0.002147        -1.933344
 H        -2.995692         0.838608        -2.365210
