19
Iteration:  2265
 C        -0.123899         2.610664        -0.029475
 C        -0.696120         1.221726        -0.085191
 C        -2.182874         0.710966         0.422397
 C        -1.894079        -0.503487        -0.430270
 C        -0.779248        -1.244127         0.323357
 C         0.025833         0.126407         0.710659
 O         0.857453         0.324908         1.571209
 C        -1.124200         0.459096        -1.433009
 O        -2.080024         1.112057        -2.313452
 H        -0.733856         3.431314        -0.471964
 H         0.096468         2.911947         0.964262
 H         0.839774         2.784501        -0.487202
 H        -2.407294         0.584608         1.590115
 H        -2.963262         1.321908        -0.159846
 H        -2.857602        -1.058010        -0.703558
 H        -1.069848        -1.713471         1.234592
 H        -0.279754        -1.943550        -0.287375
 H        -0.252946         0.079595        -1.951473
 H        -1.999311         2.043264        -2.258997
