19
Iteration:  4714charge 0 multiplicity 1
 C        -0.409092         2.672306         0.167584
 C        -0.889890         1.237018         0.080215
 C        -2.404698         0.871466         0.180713
 C        -1.929950        -0.489710        -0.442847
 C        -1.043343        -1.157826         0.571526
 C        -0.164002         0.141870         0.812637
 O         1.012781         0.296824         1.239684
 C        -0.923454         0.301222        -1.303146
 O        -1.477828         0.961610        -2.429042
 H         0.605019         3.123510        -0.133759
 H        -1.143945         3.373381        -0.384673
 H        -0.406519         2.927208         1.302098
 H        -2.886818         0.918408         1.152098
 H        -2.747891         1.507483        -0.716644
 H        -2.513600        -1.138431        -1.204569
 H        -1.599131        -1.327469         1.465425
 H        -0.357357        -1.938925         0.237993
 H         0.031370        -0.203255        -1.435449
 H        -0.838188         1.709267        -2.725962
