19
Iteration:  4233charge 0 multiplicity 1
 C        -0.173135         2.625634        -0.022972
 C        -0.755442         1.199965        -0.090107
 C        -2.321078         0.765829         0.223828
 C        -1.885265        -0.554340        -0.548272
 C        -0.902592        -1.104506         0.509771
 C        -0.139568         0.111992         0.885455
 O         0.803663         0.330670         1.627111
 C        -1.049781         0.357352        -1.423799
 O        -1.728690         1.138754        -2.372010
 H         0.927259         2.709468        -0.077264
 H        -0.604851         3.418622        -0.653796
 H        -0.299204         2.847114         1.063057
 H        -2.649519         0.598910         1.266200
 H        -3.062358         1.298767        -0.282246
 H        -2.502816        -1.288830        -1.112577
 H        -1.329473        -1.634240         1.383668
 H        -0.155807        -1.857779         0.092975
 H        -0.098754        -0.068922        -1.897978
 H        -1.185817         1.657328        -2.931881
