19
Iteration:  1577charge 0 multiplicity 1
 C        -0.351196         2.675794         0.260605
 C        -0.836286         1.259762         0.074679
 C        -2.255042         0.768757         0.460197
 C        -1.932761        -0.512329        -0.341944
 C        -0.872821        -1.140967         0.515806
 C         0.087789         0.026524         0.634403
 O         1.285964         0.128819         0.781396
 C        -1.128649         0.496069        -1.293652
 O        -2.043045         1.237252        -2.179356
 H        -1.141236         3.366475         0.778295
 H         0.721543         2.654187         0.583325
 H        -0.333184         3.011805        -0.745256
 H        -2.457137         0.749346         1.606259
 H        -3.076409         1.339824        -0.031483
 H        -2.649598        -1.243390        -0.706115
 H        -1.226175        -1.631960         1.434201
 H        -0.392864        -1.969163        -0.044458
 H        -0.330807         0.266716        -1.957366
 H        -2.001267         0.731359        -2.950126
