19
Iteration:  2825
 C        -0.322749         2.613859        -0.032131
 C        -0.895124         1.224628        -0.091247
 C        -2.331585         0.741945         0.453487
 C        -1.866429        -0.494176        -0.465707
 C        -0.819620        -1.085348         0.466674
 C        -0.064545         0.125372         0.755583
 O         0.795722         0.235461         1.593274
 C        -0.973849         0.423721        -1.339908
 O        -1.586139         1.139550        -2.548530
 H         0.212138         2.710224         0.880305
 H         0.378975         2.626501        -0.827716
 H        -1.036532         3.442886        -0.172757
 H        -2.417983         0.462121         1.520866
 H        -3.199704         1.282949        -0.016067
 H        -2.486374        -1.237934        -1.104633
 H        -1.175728        -1.545547         1.403657
 H        -0.376154        -1.964186        -0.022690
 H        -0.024514         0.068955        -1.756626
 H        -2.411642         1.568654        -2.251408
