19
Iteration:  1671
 C        -0.264666         2.737203         0.005088
 C        -0.793866         1.253498         0.010827
 C        -2.257985         0.706849         0.599146
 C        -1.996503        -0.524062        -0.353264
 C        -0.837152        -1.197368         0.383359
 C         0.060086         0.081124         0.616902
 O         1.172216         0.155270         1.022419
 C        -1.209946         0.387742        -1.290427
 O        -1.947627         1.199847        -2.184805
 H         0.633769         2.932110         0.477868
 H        -0.159615         3.180630        -1.007159
 H        -0.848570         3.535193         0.582065
 H        -2.343337         0.619572         1.625846
 H        -3.101435         1.250046         0.201132
 H        -2.847719        -1.067992        -0.849462
 H        -1.088325        -1.594795         1.355260
 H        -0.226341        -1.934761        -0.181956
 H        -0.522115        -0.112757        -1.984700
 H        -1.960633         2.174528        -1.957813
