19
Iteration:  4682
 C        -0.523227         2.737361         0.037017
 C        -0.917881         1.264036         0.106074
 C        -2.391187         0.813693         0.400056
 C        -1.970401        -0.411172        -0.401938
 C        -0.983072        -1.059455         0.520493
 C        -0.115573         0.196564         0.790697
 O         0.962821         0.131543         1.347628
 C        -0.916557         0.268723        -1.370074
 O        -1.371271         1.018089        -2.555293
 H         0.298396         2.787446        -0.732755
 H        -1.453171         3.374158        -0.129210
 H        -0.265760         3.030977         1.134516
 H        -2.689168         0.711800         1.358890
 H        -3.172639         1.527872        -0.012005
 H        -2.650146        -1.095043        -0.976922
 H        -1.415010        -1.525051         1.410955
 H        -0.266966        -1.855034         0.180911
 H         0.078001        -0.251081        -1.581628
 H        -0.581839         1.190914        -2.991988
