19
Iteration:  2459charge 0 multiplicity 1
 C        -0.504979         2.642519         0.133064
 C        -0.886830         1.164354         0.049920
 C        -2.418297         0.867400         0.284426
 C        -1.963494        -0.464886        -0.352857
 C        -0.908150        -1.204143         0.507948
 C        -0.021798         0.124250         0.825859
 O         1.148751         0.226561         1.108007
 C        -1.044661         0.401598        -1.237068
 O        -1.494796         1.137209        -2.410263
 H         0.419494         2.812064         0.746432
 H        -0.296806         3.068174        -0.840909
 H        -1.393047         3.205365         0.512293
 H        -2.751971         0.897384         1.321416
 H        -2.824070         1.645571        -0.426771
 H        -2.649714        -1.250750        -0.647612
 H        -1.277259        -1.670817         1.457048
 H        -0.562724        -1.929979        -0.324736
 H        -0.176645        -0.052778        -1.734075
 H        -2.426552         1.094137        -2.437631
