19
Iteration:  3698
 C        -0.197567         2.501869        -0.067790
 C        -0.796069         1.203056        -0.085874
 C        -2.251700         0.761485         0.201909
 C        -1.899448        -0.562266        -0.571305
 C        -0.873892        -1.144677         0.410294
 C        -0.084707         0.197586         0.855979
 O         0.776530         0.390526         1.703713
 C        -0.990210         0.383485        -1.381000
 O        -1.816492         1.139703        -2.277046
 H         0.891024         2.303682        -0.144293
 H        -0.540669         3.160514        -0.837510
 H        -0.324498         3.153950         0.975122
 H        -2.810212         0.456566         1.067386
 H        -2.927887         1.312923        -0.458962
 H        -2.661375        -1.201513        -1.172991
 H        -1.203660        -1.694769         1.305438
 H         0.002676        -1.714488         0.052613
 H        -0.057268         0.004945        -1.849019
 H        -1.093111         1.664962        -2.765101
