19
Iteration:  2095
 C        -0.190513         2.648055         0.067466
 C        -0.788431         1.219217         0.076859
 C        -2.314823         0.749100         0.463991
 C        -1.937180        -0.513658        -0.430732
 C        -0.835454        -1.209572         0.392885
 C        -0.026753         0.086370         0.728090
 O         1.053011         0.259846         1.258762
 C        -1.101146         0.492619        -1.352334
 O        -1.903093         1.189860        -2.337636
 H         0.524590         2.986262        -0.743408
 H        -1.177105         3.324859        -0.038689
 H         0.208305         2.987536         1.092696
 H        -2.556425         0.729626         1.499357
 H        -3.068680         1.276987        -0.059704
 H        -2.645822        -1.200964        -0.897644
 H        -1.152806        -1.697491         1.370224
 H        -0.078285        -1.792039        -0.271827
 H        -0.248479         0.089749        -1.905609
 H        -2.344224         0.452352        -2.807208
