19
Iteration:  3391charge 0 multiplicity 1
 C        -0.346797         2.685464         0.069584
 C        -0.884467         1.246257        -0.066210
 C        -2.283494         0.768499         0.295434
 C        -1.866489        -0.528810        -0.458398
 C        -0.812987        -1.173443         0.363754
 C        -0.102722         0.166683         0.832688
 O         0.808093         0.314595         1.684777
 C        -0.960607         0.354346        -1.443495
 O        -1.620953         1.042018        -2.500485
 H         0.673159         2.614351        -0.193221
 H        -0.838749         3.253471        -0.648088
 H        -0.533009         3.155503         1.026581
 H        -2.619099         0.666116         1.348954
 H        -3.034889         1.377922        -0.325741
 H        -2.718292        -1.205229        -0.933955
 H        -1.243575        -1.824090         1.180925
 H        -0.176004        -1.830096        -0.327452
 H         0.032020         0.010831        -1.687641
 H        -1.917515         1.857353        -2.174693
