19
Iteration:  3547
 C        -0.393941         2.647732         0.128692
 C        -0.795056         1.233801        -0.041519
 C        -2.363539         0.765460         0.142576
 C        -1.901704        -0.529583        -0.465721
 C        -0.916419        -1.085200         0.549836
 C        -0.121582         0.189791         0.825676
 O         0.903878         0.256940         1.405061
 C        -0.976560         0.367753        -1.318934
 O        -1.539043         1.032905        -2.411074
 H         0.541824         2.802349        -0.369858
 H        -1.068022         3.264238        -0.387566
 H        -0.281054         3.040750         1.108155
 H        -2.955368         0.581107         1.066420
 H        -3.039803         1.332235        -0.527331
 H        -2.683899        -1.272834        -0.944373
 H        -1.366035        -1.520048         1.480296
 H        -0.235965        -1.881115         0.101396
 H        -0.012174        -0.087984        -1.677180
 H        -1.578929         2.034097        -2.271437
