19
Iteration:   325charge 0 multiplicity 1
 C         0.028887         2.512391        -0.240317
 C        -0.667540         1.169389        -0.085342
 C        -1.740671         0.726860         0.966636
 C        -1.995170        -0.498205        -0.058309
 C        -0.644429        -1.278379        -0.061499
 C         0.279548         0.031033         0.126027
 O         1.414121         0.053823         0.577556
 C        -1.689821         0.628155        -1.139816
 O        -2.916054         1.436702        -1.370221
 H        -0.592690         3.332843        -0.620199
 H         0.619223         2.965576         0.662916
 H         0.752893         2.371989        -1.022611
 H        -1.421038         0.506700         2.048836
 H        -2.520387         1.515178         0.851408
 H        -2.982044        -0.889195        -0.154229
 H        -0.593217        -2.125876         0.699306
 H        -0.466754        -1.736518        -1.012848
 H        -1.317890         0.294965        -2.122822
 H        -2.787031         2.428731        -1.405332
