19
Iteration:  2352charge 0 multiplicity 1
 C        -0.277731         2.601618        -0.002444
 C        -0.751499         1.158853        -0.104690
 C        -2.181018         0.761620         0.390481
 C        -1.879820        -0.527787        -0.464972
 C        -0.797308        -1.145252         0.371307
 C        -0.005568         0.064926         0.735898
 O         0.886394         0.327656         1.525378
 C        -1.098614         0.391571        -1.392449
 O        -1.893678         1.267297        -2.269124
 H        -0.815766         3.061109         0.874223
 H         0.795546         2.552999         0.100131
 H        -0.545159         3.112384        -0.934959
 H        -2.275615         0.748687         1.446478
 H        -3.034363         1.287845        -0.015670
 H        -2.789543        -1.185927        -0.668118
 H        -1.183313        -1.692563         1.208330
 H        -0.240111        -1.812566        -0.267293
 H        -0.231212         0.049330        -1.920507
 H        -2.139992         0.715009        -2.981573
