19
Iteration:  4441
 C        -0.413015         2.708544         0.196430
 C        -0.839753         1.235991         0.082161
 C        -2.420764         0.813636         0.222722
 C        -1.930548        -0.454726        -0.455447
 C        -1.014095        -1.124910         0.554346
 C        -0.128527         0.127778         0.835533
 O         0.953477         0.269213         1.277493
 C        -0.950290         0.352816        -1.360149
 O        -1.499390         1.010548        -2.490322
 H         0.662082         2.751228         0.093025
 H        -0.851177         3.240564        -0.620203
 H        -0.540843         3.081771         1.154600
 H        -2.776270         0.714457         1.342145
 H        -2.873516         1.563112        -0.388690
 H        -2.599468        -1.233224        -0.795350
 H        -1.262939        -1.443971         1.566989
 H        -0.361884        -1.950083         0.176493
 H        -0.059939        -0.222796        -1.564505
 H        -0.713075         1.125111        -3.141588
