19
Iteration:   696charge 0 multiplicity 1
 C        -0.070873         2.616061        -0.116629
 C        -0.639455         1.193304        -0.063517
 C        -1.854166         0.813491         0.904583
 C        -2.042339        -0.409345        -0.048018
 C        -0.747923        -1.308565         0.141545
 C         0.228718         0.002550         0.282066
 O         1.364823         0.058584         0.687552
 C        -1.580174         0.520135        -1.245552
 O        -2.584282         1.408815        -1.770808
 H        -0.924280         3.246876        -0.611903
 H         0.301831         3.082436         0.868901
 H         0.722846         2.748264        -0.839734
 H        -1.684279         0.462875         1.832266
 H        -2.494718         1.681420         0.832693
 H        -2.988209        -0.900301        -0.248018
 H        -0.615571        -1.724826         1.179406
 H        -0.452275        -2.054180        -0.565594
 H        -0.974505        -0.015096        -1.990361
 H        -3.382665         0.878821        -2.056653
