19
Iteration:   197charge 0 multiplicity 1
 C        -0.029953         2.504386         0.281079
 C        -0.738880         1.178888         0.079401
 C        -1.947086         0.752110         1.068590
 C        -2.022997        -0.401164         0.008497
 C        -0.634878        -1.174240         0.309740
 C         0.232640        -0.003387         0.135531
 O         1.406656         0.065044        -0.282609
 C        -1.577710         0.590373        -1.134154
 O        -2.665345         1.333727        -1.654526
 H         0.368002         2.650837         1.302843
 H         0.829579         2.613684        -0.396351
 H        -0.762799         3.352347         0.158910
 H        -1.702756         0.449607         2.043057
 H        -2.745196         1.480695         1.124652
 H        -2.857314        -1.080953        -0.100504
 H        -0.522865        -1.586234         1.350692
 H        -0.636716        -1.950230        -0.488024
 H        -1.069110         0.063952        -1.967896
 H        -2.619172         2.271527        -1.727870
