19
Iteration:  3042charge 0 multiplicity 1
 C        -0.455562         2.557470         0.161952
 C        -0.957407         1.248408         0.136571
 C        -2.418813         0.849095         0.154916
 C        -1.963121        -0.474980        -0.469048
 C        -0.940984        -1.044271         0.514502
 C        -0.155697         0.276410         0.856524
 O         1.022827         0.288215         1.257683
 C        -0.914810         0.260365        -1.366991
 O        -1.355266         1.016960        -2.426641
 H         0.529969         2.344370        -0.358641
 H        -1.104190         3.457730        -0.130930
 H        -0.130737         2.846466         1.249569
 H        -3.042686         0.540117         1.074111
 H        -3.029809         1.576792        -0.445449
 H        -2.703886        -1.258668        -0.742693
 H        -1.268959        -1.458340         1.489324
 H        -0.361752        -1.840771         0.032567
 H         0.018515        -0.200583        -1.714287
 H        -2.368391         1.056365        -2.288302
