19
Iteration:  4167
 C        -0.481202         2.759889         0.099627
 C        -0.917336         1.273322         0.122467
 C        -2.335769         0.794144         0.307714
 C        -1.980288        -0.459340        -0.534549
 C        -0.980078        -1.064238         0.612694
 C        -0.163739         0.175319         0.852052
 O         0.979164         0.120973         1.262729
 C        -0.893775         0.363947        -1.350081
 O        -1.445200         0.990668        -2.520073
 H         0.523469         2.930134        -0.441179
 H        -1.280761         3.413097        -0.325254
 H        -0.242016         2.947149         1.234552
 H        -2.813608         0.675595         1.268959
 H        -3.013136         1.348152        -0.247021
 H        -2.718406        -1.277784        -0.752775
 H        -1.503182        -1.432020         1.537557
 H        -0.280996        -1.891516         0.287263
 H         0.021441        -0.238987        -1.668910
 H        -0.680028         1.629467        -2.772714
