19
Iteration:  3525charge 0 multiplicity 1
 C        -0.395785         2.650743         0.076542
 C        -0.841761         1.262834         0.048316
 C        -2.315225         0.858608         0.283376
 C        -1.874423        -0.509762        -0.545665
 C        -0.857089        -1.134134         0.418238
 C        -0.078887         0.155016         0.801401
 O         0.850600         0.302919         1.589363
 C        -0.943753         0.312331        -1.436308
 O        -1.659193         1.005606        -2.441030
 H         0.604957         2.702307        -0.278797
 H        -0.963809         3.421550        -0.341599
 H        -0.239016         2.890388         1.115709
 H        -2.718599         0.775296         1.354648
 H        -3.095045         1.442415        -0.271518
 H        -2.702512        -1.238092        -1.035541
 H        -1.380115        -1.587408         1.308623
 H        -0.159308        -1.965454         0.050395
 H        -0.111630        -0.234414        -1.908591
 H        -1.090439         1.719592        -2.782995
