19
Iteration:   857
 C        -0.016025         2.636263        -0.102926
 C        -0.692793         1.201512        -0.072750
 C        -1.992770         0.812363         0.843435
 C        -2.009116        -0.410952        -0.124831
 C        -0.752054        -1.256196         0.224950
 C         0.179976         0.015784         0.377469
 O         1.338159         0.133951         0.730210
 C        -1.535193         0.446400        -1.270022
 O        -2.554507         1.276599        -1.829599
 H         0.812749         2.757938        -0.831803
 H        -0.791552         3.407111        -0.199721
 H         0.511581         2.661833         0.783537
 H        -1.620849         0.637948         1.937339
 H        -2.905878         1.457557         0.721840
 H        -2.790764        -1.114173        -0.349642
 H        -0.861315        -1.761381         1.192205
 H        -0.509773        -1.966507        -0.521377
 H        -0.845656         0.003846        -2.026979
 H        -2.207927         2.015449        -2.296704
