19
Iteration:  3604charge 0 multiplicity 1
 C        -0.474426         2.696769         0.106432
 C        -0.938947         1.244504         0.003175
 C        -2.460316         0.823967         0.272081
 C        -1.958296        -0.529502        -0.482946
 C        -0.963031        -1.106653         0.547239
 C        -0.099696         0.189137         0.845218
 O         1.013294         0.211108         1.259152
 C        -0.906566         0.339672        -1.290846
 O        -1.338317         1.096595        -2.413465
 H         0.622591         2.708159         0.067176
 H        -0.892387         3.251246        -0.757331
 H        -0.767195         3.153390         0.959774
 H        -2.823146         0.575397         1.351742
 H        -3.183764         1.344225        -0.327371
 H        -2.649633        -1.204958        -0.990815
 H        -1.428396        -1.514265         1.459799
 H        -0.401990        -1.968802         0.104564
 H         0.094959        -0.028485        -1.477765
 H        -2.211630         0.881441        -2.599088
