19
Iteration:  2755
 C        -0.402626         2.748490         0.176932
 C        -0.904112         1.271960         0.101935
 C        -2.405583         0.715996         0.220657
 C        -1.864708        -0.495678        -0.476583
 C        -0.991668        -1.065603         0.576964
 C        -0.083390         0.179632         0.777043
 O         1.038228         0.181359         1.236834
 C        -0.959284         0.371688        -1.354968
 O        -1.530115         1.021987        -2.478407
 H        -0.958228         3.311984         0.965723
 H         0.625219         2.594822         0.593820
 H        -0.447117         3.374401        -0.703165
 H        -2.646363         0.651710         1.327996
 H        -3.016647         1.382338        -0.423836
 H        -2.440464        -1.208275        -0.960139
 H        -1.498575        -1.365876         1.493719
 H        -0.401853        -1.956599         0.417715
 H        -0.165361        -0.252409        -1.742802
 H        -2.305473         1.504405        -2.050972
