19
Iteration:    76charge 0 multiplicity 1
 C        -0.004131         2.496352        -0.237123
 C        -0.680057         1.159776        -0.086139
 C        -1.622950         0.619130         1.007483
 C        -1.923085        -0.442375        -0.091627
 C        -0.618833        -1.240157        -0.235659
 C         0.293644        -0.012566         0.026463
 O         1.376574         0.035419         0.519703
 C        -1.853893         0.633022        -1.150314
 O        -2.918982         1.536477        -1.149651
 H         0.428658         2.721434        -1.199069
 H        -0.770544         3.290162         0.006223
 H         0.867662         2.734219         0.362098
 H        -1.182449         0.254854         1.890559
 H        -2.539677         1.145093         1.139666
 H        -2.749168        -1.101839        -0.114448
 H        -0.329275        -1.909735         0.669836
 H        -0.555966        -1.574478        -1.245926
 H        -1.490286         0.313306        -2.106252
 H        -2.582446         2.429930        -0.792625
