19
Iteration:  4479
 C        -0.277599         2.598647         0.023570
 C        -0.856537         1.193933         0.023332
 C        -2.408211         0.766869         0.166668
 C        -1.886913        -0.509105        -0.492120
 C        -0.892105        -1.110204         0.576622
 C        -0.120337         0.141306         0.790715
 O         0.856020         0.286101         1.402844
 C        -0.889950         0.366664        -1.293754
 O        -1.652240         1.127257        -2.311564
 H         0.758154         2.486278         0.400546
 H        -0.211851         3.152687        -0.939052
 H        -0.903384         3.296328         0.682773
 H        -2.902447         0.835069         1.102719
 H        -3.033120         1.426846        -0.531734
 H        -2.442226        -1.195319        -1.165300
 H        -1.469574        -1.345999         1.497447
 H        -0.453561        -1.940383         0.057864
 H         0.106317         0.066391        -1.669279
 H        -1.205511         1.238154        -3.097095
