19
Iteration:  4910charge 0 multiplicity 1
 C        -0.231770         2.595965         0.117587
 C        -0.762090         1.228141        -0.043657
 C        -2.274238         0.780621         0.338594
 C        -1.895506        -0.467936        -0.519875
 C        -0.884656        -1.107929         0.364708
 C        -0.125005         0.154912         0.749756
 O         0.867047         0.344353         1.549039
 C        -1.030797         0.357793        -1.337222
 O        -1.778107         1.011339        -2.432819
 H        -0.945342         3.116916         0.702251
 H         0.705595         2.647133         0.623184
 H        -0.088344         3.173665        -0.709672
 H        -2.503837         0.554187         1.420434
 H        -3.116940         1.400882        -0.146668
 H        -2.789886        -1.161862        -0.944562
 H        -1.322763        -1.603021         1.194040
 H        -0.154651        -1.875120         0.090659
 H        -0.113216        -0.005243        -1.897549
 H        -1.125319         1.574233        -2.897910
