19
Iteration:  3590
 C        -0.437426         2.629357         0.043369
 C        -0.912617         1.219769         0.164201
 C        -2.399598         0.673975         0.236581
 C        -1.897521        -0.482540        -0.505410
 C        -1.000860        -1.047417         0.608094
 C        -0.142913         0.182874         0.780939
 O         0.960748         0.245379         1.233385
 C        -0.929212         0.404404        -1.307514
 O        -1.342492         1.089759        -2.418596
 H         0.629251         2.730955        -0.091899
 H        -0.985050         3.231362        -0.593984
 H        -0.651348         3.010210         1.127830
 H        -2.837388         0.678907         1.246461
 H        -2.996194         1.378925        -0.370944
 H        -2.646886        -1.272065        -1.088241
 H        -1.639069        -1.265420         1.505873
 H        -0.203174        -1.822918         0.374691
 H         0.008407        -0.269139        -1.629751
 H        -2.385569         1.284217        -2.436125
