19
Iteration:   111charge 0 multiplicity 1
 C        -0.106460         2.561053        -0.277550
 C        -0.661890         1.155240        -0.035576
 C        -1.719947         0.492505         1.073082
 C        -1.975614        -0.482602        -0.069807
 C        -0.654186        -1.232951        -0.087634
 C         0.317687        -0.000833         0.056819
 O         1.450169         0.049777         0.379401
 C        -1.789915         0.640897        -1.079942
 O        -2.726686         1.678980        -1.328335
 H        -0.917919         3.117654        -0.779456
 H        -0.118871         2.927217         0.683873
 H         0.922345         2.665706        -0.644126
 H        -1.355397         0.061237         2.007300
 H        -2.610079         1.067207         1.357747
 H        -2.890285        -1.097841        -0.008406
 H        -0.565053        -2.009923         0.595750
 H        -0.583356        -1.781277        -1.047821
 H        -1.492199         0.305161        -2.036216
 H        -3.356200         1.509685        -0.581823
