19
Iteration:  2773charge 0 multiplicity 1
 C        -0.391094         2.577766         0.148524
 C        -0.882096         1.189694        -0.008507
 C        -2.403628         0.912175         0.210498
 C        -1.960925        -0.536683        -0.473929
 C        -0.879447        -1.131435         0.551156
 C        -0.082485         0.177487         0.765604
 O         1.002056         0.249836         1.291022
 C        -0.945014         0.463259        -1.283705
 O        -1.510647         1.020789        -2.380536
 H        -0.889576         3.010031         1.057662
 H         0.692187         2.643625         0.204425
 H        -0.963020         3.098666        -0.725806
 H        -2.841934         0.743207         1.142303
 H        -3.061758         1.387849        -0.465777
 H        -2.791714        -1.193339        -0.940138
 H        -1.379713        -1.625119         1.454741
 H        -0.243984        -1.966360         0.153609
 H         0.080151         0.223842        -1.795455
 H        -2.384945         1.530628        -2.242545
