19
Iteration:  3131
 C        -0.271033         2.658989        -0.079965
 C        -0.778076         1.228069        -0.112853
 C        -2.243093         0.844860         0.239522
 C        -1.829172        -0.549767        -0.525374
 C        -0.739467        -1.231092         0.368239
 C        -0.036412         0.080032         0.812450
 O         0.615554         0.357756         1.759404
 C        -1.033585         0.380056        -1.373655
 O        -1.727823         1.073801        -2.327871
 H         0.418596         2.710526        -0.982808
 H        -1.031689         3.433424        -0.288306
 H         0.411668         3.078056         0.831156
 H        -2.773993         0.777848         1.197979
 H        -3.086474         1.349944        -0.282787
 H        -2.619773        -1.320933        -0.861882
 H        -1.135408        -1.852532         1.195272
 H        -0.117117        -1.910034        -0.223279
 H        -0.103284        -0.136192        -1.840133
 H        -1.479124         2.041534        -2.246429
