19
Iteration:   640charge 0 multiplicity 1
 C         0.098119         2.536014        -0.373286
 C        -0.644865         1.165004        -0.177933
 C        -1.790839         0.695773         0.838628
 C        -1.937920        -0.472261        -0.160945
 C        -0.668143        -1.265429        -0.038403
 C         0.289290        -0.028832         0.271984
 O         1.221040         0.146605         1.018073
 C        -1.677443         0.639663        -1.227840
 O        -2.754806         1.484710        -1.452268
 H         0.764275         2.343220        -1.313623
 H        -0.666786         3.388461        -0.653282
 H         0.719716         2.818585         0.444726
 H        -1.651492         0.557267         1.825186
 H        -2.626432         1.332676         0.756166
 H        -2.795403        -1.140558        -0.275581
 H        -0.680351        -2.085346         0.763144
 H        -0.354192        -1.745056        -0.930407
 H        -1.143727         0.238355        -2.118381
 H        -3.529807         0.975925        -1.793064
