19
Iteration:  1875charge 0 multiplicity 1
 C        -0.396161         2.701552         0.120028
 C        -0.905396         1.278577         0.124866
 C        -2.325084         0.800347         0.447772
 C        -1.987015        -0.517965        -0.287976
 C        -0.873891        -1.229130         0.472143
 C        -0.007401         0.088623         0.598565
 O         1.144692         0.190440         0.821272
 C        -1.113867         0.451088        -1.189535
 O        -1.676935         1.177222        -2.186544
 H        -0.985733         3.236030         0.929110
 H         0.717915         2.771800         0.312096
 H        -0.615585         3.098474        -0.923898
 H        -2.684995         0.781439         1.567519
 H        -3.088813         1.295774        -0.229735
 H        -2.856314        -1.080304        -0.645671
 H        -1.198440        -1.640944         1.491001
 H        -0.242808        -2.023631        -0.078291
 H        -0.131534         0.057475        -1.666541
 H        -1.558438         0.760030        -3.018452
