19
Iteration:  4504charge 0 multiplicity 1
 C        -0.305041         2.657321        -0.044595
 C        -0.736015         1.170975        -0.054783
 C        -2.253659         0.773712         0.243775
 C        -1.886674        -0.536790        -0.584643
 C        -0.940491        -1.210930         0.517408
 C        -0.157973         0.145396         0.895008
 O         0.858018         0.324923         1.607629
 C        -1.010438         0.362498        -1.398737
 O        -1.718561         1.160299        -2.345541
 H         0.805966         2.680022         0.420075
 H        -0.074936         3.041196        -1.114123
 H        -0.969176         3.387046         0.439779
 H        -2.290802         0.659801         1.276883
 H        -2.944071         1.432066        -0.085378
 H        -2.562262        -1.221530        -1.101584
 H        -1.616956        -1.484499         1.299919
 H        -0.389558        -2.016192         0.052747
 H        -0.034690        -0.019454        -1.872094
 H        -1.152582         1.444845        -3.048013
