19
Iteration:  1347
 C        -0.428353         2.736463         0.243287
 C        -0.891588         1.253672         0.153606
 C        -2.250110         0.762247         0.694089
 C        -2.017662        -0.512905        -0.307313
 C        -0.842726        -1.149975         0.591747
 C         0.116058         0.075598         0.538328
 O         1.350408         0.025314         0.444811
 C        -1.196274         0.404290        -1.260969
 O        -1.867552         1.254221        -2.218654
 H         0.356982         2.925940         1.045198
 H        -0.114671         3.120279        -0.751616
 H        -1.274148         3.400859         0.392615
 H        -2.561807         0.680778         1.766295
 H        -2.995689         1.473904         0.266377
 H        -2.850322        -1.104040        -0.717040
 H        -1.081801        -1.263848         1.630316
 H        -0.432485        -2.027853         0.254564
 H        -0.305251         0.287899        -1.880150
 H        -2.794903         1.205198        -2.156158
