19
Iteration:  2086
 C        -0.227281         2.557138         0.051627
 C        -0.791780         1.208951         0.020893
 C        -2.271000         0.711246         0.468005
 C        -1.898640        -0.449734        -0.483067
 C        -0.788874        -1.114532         0.371466
 C         0.024403         0.083947         0.780605
 O         1.078254         0.261173         1.377880
 C        -1.183987         0.500576        -1.390071
 O        -1.967796         1.211506        -2.353641
 H         0.577951         2.622779        -0.649434
 H        -0.909170         3.365230        -0.301491
 H         0.186637         2.852680         1.035863
 H        -2.624185         0.380175         1.477650
 H        -2.940466         1.439770         0.017994
 H        -2.645385        -1.103124        -0.958927
 H        -1.282802        -1.610929         1.201088
 H        -0.123440        -1.847731        -0.115923
 H        -0.384622        -0.057690        -1.867725
 H        -2.448016         0.447644        -2.727082
