19
Iteration:   279
 C        -0.269199         2.695728        -0.039506
 C        -0.639525         1.184366        -0.022555
 C        -1.773022         0.741238         0.997608
 C        -2.067728        -0.444998        -0.002551
 C        -0.679753        -1.285051         0.202550
 C         0.271533        -0.053929         0.076822
 O         1.463508        -0.101575         0.158955
 C        -1.629838         0.582723        -1.108383
 O        -2.596788         1.531194        -1.468334
 H        -0.164410         3.050789        -1.071514
 H        -1.159046         3.270017         0.409056
 H         0.582829         3.009920         0.522196
 H        -1.413486         0.343403         2.025587
 H        -2.630639         1.468619         0.953481
 H        -3.122011        -0.874689         0.009126
 H        -0.391655        -1.857044         1.107218
 H        -0.462641        -1.993685        -0.572217
 H        -1.145069         0.285566        -2.020609
 H        -2.984608         1.393090        -2.345119
