19
Iteration:   563charge 0 multiplicity 1
 C        -0.261014         2.616291        -0.072890
 C        -0.731537         1.183701         0.020662
 C        -1.865421         0.780793         0.877494
 C        -1.972391        -0.417114        -0.097381
 C        -0.750453        -1.206209         0.203858
 C         0.247607         0.011463         0.251760
 O         1.445419        -0.084532         0.401120
 C        -1.522893         0.565824        -1.163085
 O        -2.526792         1.477208        -1.629055
 H        -0.080808         2.951291         0.991546
 H         0.737272         2.707625        -0.650598
 H        -1.061528         3.226796        -0.508405
 H        -1.722269         0.542093         1.876947
 H        -2.631883         1.526800         0.729702
 H        -2.942278        -0.940693        -0.177514
 H        -0.820130        -1.673348         1.252681
 H        -0.413046        -1.908982        -0.492303
 H        -0.972156         0.002688        -2.003296
 H        -2.990747         0.881678        -2.298572
