19
Iteration:   447
 C        -0.205336         2.559695        -0.014195
 C        -0.737443         1.202837         0.056121
 C        -1.904446         0.739932         1.002487
 C        -2.047059        -0.400150        -0.036633
 C        -0.719951        -1.191771         0.262499
 C         0.278301        -0.037100         0.249941
 O         1.501582        -0.035215         0.161014
 C        -1.569851         0.638615        -1.115222
 O        -2.591853         1.415243        -1.689943
 H         0.376024         2.737196        -0.952346
 H        -1.008007         3.329152        -0.128823
 H         0.415317         2.934366         0.840254
 H        -1.825718         0.547295         2.137052
 H        -2.677800         1.500105         0.768722
 H        -2.894814        -1.049040        -0.003400
 H        -0.873892        -1.769562         1.186652
 H        -0.343360        -1.995789        -0.410467
 H        -0.888690         0.242735        -1.864173
 H        -2.443391         1.310673        -2.658158
