19
Iteration:  2885charge 0 multiplicity 1
 C        -0.206721         2.564626         0.030946
 C        -0.765979         1.163290        -0.080537
 C        -2.166388         0.817105         0.246474
 C        -1.815594        -0.607390        -0.479234
 C        -0.751983        -1.144899         0.427838
 C        -0.117557         0.185024         0.778474
 O         0.625638         0.329833         1.699687
 C        -1.028857         0.386201        -1.429964
 O        -1.780488         1.157647        -2.435114
 H         0.671152         2.763939         0.731846
 H         0.174610         2.827462        -1.036168
 H        -0.981095         3.333038         0.254279
 H        -2.399306         0.749922         1.327610
 H        -2.919984         1.370186        -0.280595
 H        -2.467569        -1.317262        -0.963062
 H        -1.178146        -1.613659         1.333656
 H        -0.084136        -1.830004        -0.170862
 H        -0.078953        -0.059022        -1.922916
 H        -2.503866         1.621671        -2.098467
