19
Iteration:  1787
 C        -0.077859         2.657924        -0.046275
 C        -0.695557         1.202966        -0.098017
 C        -2.139912         0.799481         0.458277
 C        -1.931316        -0.548296        -0.397112
 C        -0.685518        -1.120655         0.218605
 C         0.077743         0.112144         0.698101
 O         1.025800         0.159603         1.489585
 C        -1.340022         0.419809        -1.419682
 O        -2.268089         1.229073        -2.120540
 H        -0.393666         3.400087        -0.842305
 H        -0.387134         3.007715         0.931174
 H         1.017053         2.563708        -0.144231
 H        -2.338171         0.640344         1.605942
 H        -2.922852         1.525836         0.082614
 H        -2.749613        -1.186651        -0.711583
 H        -0.927789        -1.796322         1.066558
 H        -0.026066        -1.631462        -0.548571
 H        -0.464238        -0.002979        -1.990642
 H        -1.909417         0.994737        -2.977496
