19
Iteration:  4874
 C        -0.079889         2.597670        -0.037012
 C        -0.732259         1.172103        -0.045102
 C        -2.291796         0.779380         0.156305
 C        -1.800295        -0.571669        -0.507573
 C        -0.742670        -1.175165         0.421177
 C        -0.107240         0.128116         0.817548
 O         0.692234         0.360558         1.712853
 C        -1.052680         0.386143        -1.432345
 O        -1.961650         1.143116        -2.300806
 H        -0.289245         3.018277         0.964853
 H         1.030001         2.491422        -0.081742
 H        -0.443232         3.274797        -0.821122
 H        -2.625826         0.849901         1.104691
 H        -2.957857         1.252401        -0.484476
 H        -2.593578        -1.184440        -1.033550
 H        -1.260494        -1.604764         1.336917
 H         0.028772        -1.841811        -0.030975
 H        -0.081901         0.107738        -1.953834
 H        -1.306513         1.790272        -2.724497
