19
Iteration:  3490
 C        -0.283888         2.663244         0.025122
 C        -0.782065         1.231700        -0.023811
 C        -2.241721         0.841993         0.364091
 C        -1.807230        -0.576355        -0.550555
 C        -0.765144        -1.168832         0.376485
 C        -0.107360         0.173289         0.805668
 O         0.661960         0.298783         1.700373
 C        -0.997711         0.401942        -1.437524
 O        -1.738545         1.115501        -2.437994
 H         0.740414         2.503020        -0.248085
 H        -0.748265         3.293464        -0.651644
 H        -0.291338         3.068427         1.064466
 H        -2.549720         0.552713         1.360848
 H        -3.014867         1.382147        -0.232993
 H        -2.637621        -1.309115        -1.033234
 H        -1.176792        -1.633622         1.312040
 H         0.024924        -1.819693        -0.091676
 H        -0.001745        -0.026007        -1.797590
 H        -1.781204         0.577565        -3.252234
