19
Iteration:  3304
 C        -0.509328         2.661674         0.140332
 C        -1.010338         1.222417         0.155066
 C        -2.408695         0.811036         0.139654
 C        -1.901051        -0.502750        -0.533377
 C        -0.957053        -1.138205         0.631031
 C        -0.105949         0.107081         0.852353
 O         1.021626         0.269876         1.201142
 C        -0.877312         0.380234        -1.272691
 O        -1.369374         1.093223        -2.423512
 H         0.503548         2.702264        -0.232972
 H        -1.074530         3.215466        -0.556644
 H        -0.518809         3.293955         1.052307
 H        -2.903200         0.582229         1.099323
 H        -3.023981         1.438073        -0.602225
 H        -2.599893        -1.155893        -1.226742
 H        -1.497377        -1.424822         1.599030
 H        -0.317943        -1.996531         0.192840
 H         0.116860         0.164530        -1.442810
 H        -2.340555         0.885881        -2.345915
