19
Iteration:  2798
 C        -0.331986         2.712004         0.075574
 C        -0.834891         1.194438         0.036043
 C        -2.293056         0.757753         0.312910
 C        -2.014789        -0.513320        -0.495460
 C        -0.873775        -1.132249         0.431386
 C        -0.132097         0.132837         0.861009
 O         0.945085         0.342465         1.416071
 C        -1.027867         0.273690        -1.335272
 O        -1.512146         1.127547        -2.451711
 H        -0.159070         3.133139         1.109852
 H         0.662721         2.608240        -0.450059
 H        -1.079848         3.314844        -0.450480
 H        -2.771427         0.479361         1.281408
 H        -2.938934         1.221953        -0.403810
 H        -2.775476        -1.078144        -0.921672
 H        -1.310161        -1.646150         1.298987
 H        -0.370155        -1.957687        -0.072584
 H        -0.141481        -0.109934        -1.842953
 H        -2.404048         1.428722        -2.281370
