19
Iteration:  4513charge 0 multiplicity 1
 C        -0.284727         2.634157        -0.095597
 C        -0.755536         1.160156        -0.073685
 C        -2.259599         0.791804         0.320676
 C        -1.914857        -0.505297        -0.550839
 C        -0.870984        -1.117069         0.486174
 C        -0.080349         0.123824         0.886103
 O         0.807831         0.287347         1.681534
 C        -0.975094         0.331553        -1.439612
 O        -1.766450         1.173654        -2.400293
 H         0.616442         2.717962         0.580953
 H        -0.150297         3.026271        -1.146807
 H        -0.996734         3.200011         0.533494
 H        -2.489464         0.593736         1.315559
 H        -2.871901         1.504135        -0.146795
 H        -2.529964        -1.156643        -1.163349
 H        -1.465764        -1.607801         1.265848
 H        -0.361619        -1.968104         0.094317
 H        -0.125233        -0.207620        -1.949612
 H        -1.074969         1.507213        -2.940251
