19
Iteration:   946
 C        -0.098408         2.476505        -0.260678
 C        -0.677226         1.149184        -0.175982
 C        -1.804450         0.810885         0.837422
 C        -1.905885        -0.376889        -0.162628
 C        -0.611985        -1.227508         0.067196
 C         0.204648         0.082786         0.395995
 O         1.164495         0.101460         1.140176
 C        -1.579939         0.535416        -1.284708
 O        -2.547481         1.363089        -1.877973
 H        -0.881121         3.334569        -0.068078
 H         0.735026         2.586375         0.461787
 H         0.325116         2.640147        -1.241066
 H        -1.595078         0.584711         1.941902
 H        -2.760332         1.450605         0.753171
 H        -2.816926        -0.950289        -0.397474
 H        -0.923610        -1.762428         0.987224
 H        -0.315278        -1.892382        -0.650162
 H        -1.063152         0.021827        -2.147939
 H        -3.376758         1.167324        -1.504359
