19
Iteration:   987
 C        -0.018722         2.547700         0.006017
 C        -0.725588         1.278535        -0.044085
 C        -2.090849         0.798058         0.784811
 C        -1.989784        -0.412260        -0.197351
 C        -0.749722        -1.131978         0.240411
 C         0.146731         0.092030         0.426243
 O         1.321383         0.099509         0.735888
 C        -1.444334         0.468768        -1.247280
 O        -2.450348         1.147399        -1.971522
 H        -0.300792         3.088117         0.959687
 H         1.062300         2.270425        -0.099637
 H        -0.127144         3.319520        -0.876232
 H        -1.936141         0.828197         1.897142
 H        -2.964257         1.471991         0.603979
 H        -2.879287        -0.966391        -0.388611
 H        -0.793674        -1.507228         1.246164
 H        -0.284343        -1.915459        -0.413141
 H        -0.816586        -0.116814        -1.984344
 H        -2.909582         1.893091        -1.487105
