19
Iteration:  2661
 C        -0.349209         2.540330         0.034341
 C        -0.848522         1.196034         0.051671
 C        -2.333412         0.735183         0.376075
 C        -1.940180        -0.508550        -0.551628
 C        -0.889725        -1.076908         0.506095
 C        -0.081823         0.157341         0.854556
 O         0.979777         0.312091         1.431865
 C        -1.006870         0.437556        -1.379216
 O        -1.612634         1.097515        -2.518897
 H        -1.091332         3.306050        -0.177530
 H         0.002576         2.788378         1.058258
 H         0.491088         2.796725        -0.626694
 H        -2.443774         0.466664         1.355827
 H        -3.088879         1.403887         0.065181
 H        -2.717253        -1.195108        -1.087570
 H        -1.412346        -1.590944         1.337617
 H        -0.243045        -1.911138         0.195875
 H        -0.141196        -0.115845        -1.801807
 H        -2.299010         1.739216        -2.304056
