19
Iteration:  3088charge 0 multiplicity 1
 C        -0.359105         2.681435         0.033841
 C        -0.911442         1.256324        -0.030648
 C        -2.298606         0.721903         0.284904
 C        -1.905683        -0.524896        -0.473095
 C        -0.917750        -1.116765         0.550833
 C        -0.067730         0.124130         0.781582
 O         0.842599         0.262557         1.571642
 C        -0.924306         0.422346        -1.396728
 O        -1.545981         1.020106        -2.563899
 H         0.349453         2.835347        -0.805550
 H        -1.133660         3.432283         0.127586
 H         0.237953         2.934547         1.028100
 H        -2.476043         0.760741         1.404838
 H        -3.208626         1.252974        -0.225278
 H        -2.721178        -1.079113        -1.059933
 H        -1.417572        -1.410774         1.488162
 H        -0.278652        -1.942415         0.270436
 H        -0.026835         0.082411        -1.790462
 H        -1.924529         1.842008        -2.244582
