19
Iteration:  2866charge 0 multiplicity 1
 C        -0.263678         2.660933        -0.041291
 C        -0.737842         1.177943        -0.155502
 C        -2.287730         0.800598         0.235206
 C        -1.935337        -0.471747        -0.508622
 C        -0.775517        -1.126189         0.326620
 C        -0.040621         0.128205         0.843329
 O         0.720241         0.318431         1.778618
 C        -0.975812         0.323409        -1.504766
 O        -1.720314         1.068567        -2.310450
 H         0.456133         2.623709         0.807515
 H         0.370471         3.109252        -0.858890
 H        -1.035491         3.281402         0.357708
 H        -2.627892         0.571793         1.304102
 H        -3.049268         1.402102        -0.318038
 H        -2.702420        -1.070271        -0.916943
 H        -1.105590        -1.688556         1.174244
 H         0.021727        -1.626409        -0.214909
 H        -0.252170        -0.223360        -2.063587
 H        -2.351834         1.522075        -1.764446
