19
Iteration:  4322
 C        -0.173277         2.507594        -0.080285
 C        -0.737075         1.175666        -0.103923
 C        -2.305464         0.762615         0.275010
 C        -1.874411        -0.565590        -0.472994
 C        -0.825447        -1.179747         0.465159
 C        -0.075558         0.127027         0.831322
 O         0.682066         0.364760         1.755611
 C        -0.987701         0.465012        -1.463279
 O        -1.797599         1.195913        -2.395192
 H         0.885966         2.579292        -0.236994
 H        -0.674556         3.128745        -0.835542
 H        -0.263152         3.017518         0.974723
 H        -2.513772         0.652571         1.411843
 H        -3.032420         1.276945        -0.267803
 H        -2.617592        -0.991758        -1.078666
 H        -1.134337        -1.641289         1.434858
 H        -0.169739        -1.961657        -0.063716
 H        -0.168528        -0.038910        -2.111841
 H        -1.203549         1.513563        -3.060706
