19
Iteration:  4763charge 0 multiplicity 1
 C        -0.245544         2.660074         0.123191
 C        -0.815382         1.250146         0.043138
 C        -2.425633         0.772111         0.149876
 C        -1.837243        -0.521175        -0.577270
 C        -0.979250        -1.140337         0.583909
 C        -0.089232         0.074277         0.832719
 O         0.891813         0.337652         1.443200
 C        -0.933672         0.440076        -1.372464
 O        -1.712616         1.009477        -2.403504
 H         0.753637         2.595420         0.532970
 H        -0.095135         2.992379        -0.878237
 H        -0.715968         3.375579         0.781744
 H        -2.727004         0.547537         1.109556
 H        -3.035024         1.361403        -0.431777
 H        -2.497063        -1.190703        -1.046047
 H        -1.761749        -1.243550         1.407438
 H        -0.348484        -2.040383         0.439770
 H         0.076649         0.081125        -1.748501
 H        -1.084742         1.555116        -2.867000
