19
Iteration:  1000
 C        -0.085655         2.535702         0.041154
 C        -0.825338         1.219284         0.064119
 C        -2.067341         0.890508         0.742060
 C        -2.030213        -0.462459        -0.169182
 C        -0.749334        -1.128671         0.387562
 C         0.140757         0.074508         0.371593
 O         1.343373         0.100653         0.595206
 C        -1.386625         0.494322        -1.265910
 O        -2.383128         1.155433        -2.001795
 H         0.070183         3.035173         1.104893
 H         0.994557         2.350476        -0.237342
 H        -0.617287         3.221158        -0.653008
 H        -2.043534         0.608421         1.844791
 H        -2.976342         1.536107         0.467135
 H        -2.889665        -1.082153        -0.427833
 H        -0.931942        -1.555537         1.377325
 H        -0.378711        -1.889533        -0.192632
 H        -0.543804         0.211753        -1.972249
 H        -2.482279         1.994322        -1.554089
