19
Iteration:   331
 C         0.070903         2.525680        -0.246679
 C        -0.678737         1.201735        -0.105255
 C        -1.738730         0.737164         0.961123
 C        -1.954970        -0.489253        -0.073700
 C        -0.666957        -1.252643        -0.093630
 C         0.257013        -0.007282         0.148459
 O         1.396028         0.084989         0.600120
 C        -1.699413         0.614350        -1.115037
 O        -2.911753         1.419413        -1.365482
 H        -0.608990         3.364492        -0.460658
 H         0.804289         2.719457         0.492844
 H         0.703823         2.263699        -1.153256
 H        -1.384006         0.537958         1.959375
 H        -2.689195         1.285175         0.915276
 H        -2.962465        -1.059981        -0.090327
 H        -0.597066        -2.019607         0.633053
 H        -0.552391        -1.820567        -1.077990
 H        -1.296498         0.365816        -2.106914
 H        -2.725635         2.348831        -1.237874
