19
Iteration:  3268charge 0 multiplicity 1
 C        -0.512944         2.655866         0.068014
 C        -0.966667         1.224676         0.029971
 C        -2.342749         0.728008         0.223144
 C        -1.953479        -0.526115        -0.513839
 C        -0.895983        -1.077760         0.579360
 C        -0.107438         0.190431         0.798228
 O         0.948416         0.203474         1.343545
 C        -0.903202         0.372535        -1.313845
 O        -1.383919         1.167779        -2.378593
 H         0.574374         2.676006         0.106084
 H        -0.804194         3.105052        -0.919759
 H        -0.919085         3.149822         0.862755
 H        -2.685910         0.684251         1.262934
 H        -3.019267         1.404623        -0.238015
 H        -2.662277        -1.234089        -0.848665
 H        -1.276635        -1.516665         1.486912
 H        -0.315171        -1.853684         0.114770
 H         0.037543        -0.081055        -1.626995
 H        -2.232135         0.929813        -2.761481
