19
Iteration:   350charge 0 multiplicity 1
 C         0.161519         2.444171        -0.338867
 C        -0.743718         1.210946        -0.135335
 C        -1.775015         0.665863         1.023490
 C        -1.965531        -0.443685        -0.066409
 C        -0.585363        -1.202317        -0.095094
 C         0.207632         0.050273         0.125168
 O         1.295445         0.114703         0.668427
 C        -1.698964         0.616494        -1.190794
 O        -2.871878         1.382147        -1.337019
 H        -0.034263         3.343234         0.291574
 H         1.152882         2.172859         0.018339
 H         0.255586         2.844834        -1.413177
 H        -1.317140         0.325774         1.905762
 H        -2.556234         1.381233         1.147381
 H        -2.929763        -0.893011        -0.118702
 H        -0.517874        -2.047524         0.594165
 H        -0.298471        -1.620878        -1.121077
 H        -1.359379         0.183881        -2.201733
 H        -2.876294         2.271842        -0.940476
