19
Iteration:    86charge 0 multiplicity 1
 C        -0.042704         2.499977        -0.243269
 C        -0.684276         1.148503        -0.074766
 C        -1.632261         0.618421         1.014641
 C        -1.977748        -0.530161        -0.118059
 C        -0.584618        -1.232655        -0.188803
 C         0.271810        -0.017262         0.029124
 O         1.397216         0.060712         0.507968
 C        -1.787323         0.641404        -1.123580
 O        -2.894371         1.605376        -1.207024
 H        -0.189647         2.635150        -1.297507
 H        -0.638120         3.354625         0.256408
 H         0.984678         2.535573         0.090221
 H        -1.109996         0.286004         1.883734
 H        -2.406090         1.267378         1.369172
 H        -2.879901        -1.082461        -0.010439
 H        -0.493865        -2.183736         0.489598
 H        -0.364381        -1.675036        -1.154714
 H        -1.594555         0.428735        -2.173479
 H        -2.598491         2.253917        -0.487164
