19
Iteration:  1775
 C        -0.015123         2.592341        -0.035213
 C        -0.646866         1.214367        -0.027050
 C        -2.080214         0.760617         0.496475
 C        -1.972563        -0.510518        -0.443070
 C        -0.634602        -1.154698         0.191525
 C         0.065531         0.097688         0.682969
 O         0.963308         0.237268         1.536883
 C        -1.374911         0.463065        -1.390251
 O        -2.306591         1.198463        -2.166276
 H        -0.322211         2.975431        -1.115519
 H        -0.363003         3.333566         0.675978
 H         1.025073         2.538254         0.190071
 H        -2.145423         0.701453         1.665872
 H        -2.832526         1.455696         0.039908
 H        -2.740134        -1.245340        -0.572084
 H        -0.858090        -2.061960         0.861550
 H         0.102661        -1.622136        -0.581250
 H        -0.784538         0.053201        -2.270821
 H        -2.173694         1.360987        -3.179721
