19
Iteration:   904charge 0 multiplicity 1
 C        -0.101611         2.559097        -0.471321
 C        -0.681650         1.230036        -0.201288
 C        -1.913524         0.761287         0.804785
 C        -1.894621        -0.491918        -0.252374
 C        -0.686708        -1.295337         0.068120
 C         0.213799        -0.019191         0.445720
 O         1.202466         0.120664         1.151731
 C        -1.532564         0.503665        -1.252999
 O        -2.499147         1.486674        -1.558940
 H        -0.610552         2.936968        -1.378750
 H        -0.420750         3.247346         0.279633
 H         0.862451         2.531030        -0.683030
 H        -1.730691         0.650334         1.859282
 H        -2.787125         1.384691         0.535767
 H        -2.841114        -1.076385        -0.189315
 H        -0.792997        -1.954490         1.018491
 H        -0.176205        -1.863322        -0.742221
 H        -1.040744         0.143041        -2.138664
 H        -3.031127         1.330563        -2.385185
