19
Iteration:  4848
 C        -0.174772         2.590899        -0.158017
 C        -0.707645         1.175712        -0.056232
 C        -2.235404         0.742357         0.317359
 C        -1.875488        -0.490051        -0.571956
 C        -0.795065        -1.157139         0.373084
 C        -0.099018         0.155214         0.782940
 O         0.626774         0.319313         1.813355
 C        -0.935063         0.382578        -1.464862
 O        -1.879119         1.109776        -2.298086
 H         0.184078         2.957778         0.861329
 H         0.754078         2.614328        -0.862639
 H        -0.960531         3.344433        -0.666913
 H        -2.262242         0.419324         1.450879
 H        -3.110901         1.435838         0.206975
 H        -2.670894        -0.947062        -1.053895
 H        -1.143755        -1.688201         1.296488
 H         0.026570        -1.761823        -0.112336
 H        -0.002340         0.117769        -1.964075
 H        -1.398706         1.856392        -2.722503
