19
Iteration:  4965charge 0 multiplicity 1
 C        -0.530607         2.699003         0.063490
 C        -0.845589         1.255385         0.168646
 C        -2.380610         0.823994         0.240893
 C        -1.969057        -0.455547        -0.493080
 C        -0.979685        -1.036616         0.573508
 C        -0.089760         0.128980         0.804788
 O         1.126937         0.090736         1.227429
 C        -0.958048         0.326816        -1.296586
 O        -1.570472         1.066883        -2.391527
 H        -1.331329         3.373824         0.293940
 H         0.233443         2.985985         0.774658
 H        -0.117788         3.002470        -0.857476
 H        -2.826720         0.775736         1.205480
 H        -2.953917         1.498860        -0.432646
 H        -2.779469        -1.193051        -1.006450
 H        -1.416068        -1.423126         1.485105
 H        -0.327116        -1.830940         0.167337
 H         0.031726        -0.131258        -1.694753
 H        -0.843228         1.518810        -2.719721
