19
Iteration:   436charge 0 multiplicity 1
 C        -0.228340         2.677616        -0.090130
 C        -0.690900         1.196383         0.080902
 C        -1.892281         0.790084         0.953067
 C        -2.076754        -0.447799        -0.036358
 C        -0.728110        -1.228005         0.206925
 C         0.309699        -0.043978         0.228148
 O         1.522274        -0.059780         0.272746
 C        -1.553295         0.559958        -1.157115
 O        -2.636822         1.434179        -1.614032
 H         0.701167         2.561999        -0.705090
 H        -1.066947         3.269613        -0.538328
 H         0.109802         3.001258         0.925761
 H        -1.510127         0.514953         2.014491
 H        -2.687238         1.556291         1.072337
 H        -2.944830        -1.066472        -0.168924
 H        -0.786717        -1.745315         1.186283
 H        -0.509081        -1.875223        -0.665642
 H        -1.064763         0.134854        -2.035430
 H        -2.566028         1.617449        -2.532396
