19
Iteration:  2234
 C        -0.234328         2.556743         0.129608
 C        -0.787161         1.229845        -0.120919
 C        -2.181912         0.771044         0.474256
 C        -1.931255        -0.483942        -0.393233
 C        -0.825786        -1.122240         0.411417
 C        -0.036458         0.194692         0.658631
 O         0.983936         0.252195         1.325966
 C        -1.110091         0.394970        -1.432794
 O        -1.956290         1.073432        -2.351059
 H        -0.362667         3.302897        -0.675894
 H        -0.716637         2.991471         1.007220
 H         0.776956         2.551157         0.457802
 H        -2.389326         0.615834         1.627426
 H        -3.066548         1.375383         0.120970
 H        -2.745660        -1.175328        -0.663739
 H        -1.177223        -1.435866         1.390977
 H        -0.160517        -1.855599        -0.063095
 H        -0.169877        -0.108748        -1.869865
 H        -1.626964         2.043237        -2.334584
