19
Iteration:   957
 C        -0.036274         2.568293        -0.176253
 C        -0.677414         1.213432        -0.064454
 C        -1.840079         0.797758         0.801674
 C        -2.002706        -0.470671        -0.178793
 C        -0.687012        -1.224926         0.122021
 C         0.221175        -0.004888         0.410353
 O         1.236821         0.148552         1.077307
 C        -1.545235         0.508100        -1.327522
 O        -2.584710         1.329783        -1.972363
 H        -0.622042         3.454488         0.279054
 H         0.937460         2.501724         0.376923
 H         0.143993         2.754213        -1.213355
 H        -1.535446         0.709114         1.895917
 H        -2.663251         1.584430         0.687891
 H        -2.957341        -1.008597        -0.130184
 H        -0.657810        -1.852466         1.035648
 H        -0.326490        -1.813491        -0.652209
 H        -0.988501         0.071697        -2.204530
 H        -3.436132         1.314573        -1.474517
