19
Iteration:  2658
 C        -0.356159         2.551830         0.020203
 C        -0.839726         1.188797         0.011641
 C        -2.350270         0.738406         0.365311
 C        -1.921556        -0.503947        -0.542117
 C        -0.891331        -1.110813         0.500382
 C        -0.058146         0.146632         0.838184
 O         0.977925         0.321553         1.459115
 C        -0.995752         0.433023        -1.372965
 O        -1.619657         1.112959        -2.520985
 H        -0.998886         3.391238        -0.248072
 H        -0.056129         2.718927         1.082061
 H         0.465445         2.724216        -0.620363
 H        -2.574175         0.361938         1.450872
 H        -3.157669         1.530811         0.112540
 H        -2.726857        -1.141407        -0.950916
 H        -1.417055        -1.588225         1.371949
 H        -0.268442        -1.980058         0.233734
 H        -0.159554        -0.045719        -1.791339
 H        -2.347526         1.762412        -2.175690
