19
Iteration:  4575
 C        -0.107111         2.557899        -0.025267
 C        -0.760065         1.234392        -0.060402
 C        -2.181179         0.753915         0.282238
 C        -1.878455        -0.490466        -0.530589
 C        -0.837210        -1.115681         0.336346
 C        -0.105717         0.148873         0.847082
 O         0.633993         0.350860         1.753527
 C        -0.937507         0.431568        -1.361658
 O        -1.897244         0.999818        -2.432652
 H         0.902935         2.540795         0.274899
 H        -0.133474         3.052874        -0.995339
 H        -0.659826         3.256005         0.683689
 H        -2.400752         0.483254         1.430845
 H        -2.867001         1.600726        -0.216355
 H        -2.503196        -1.204821        -1.081034
 H        -1.196992        -1.595485         1.292761
 H        -0.122001        -1.721940        -0.350624
 H        -0.100599        -0.051644        -1.900746
 H        -1.511855         1.792630        -2.782062
