19
Iteration:  2575
 C        -0.135455         2.716929        -0.066133
 C        -0.773779         1.218981        -0.023917
 C        -2.177103         0.728778         0.506216
 C        -1.803716        -0.553909        -0.473865
 C        -0.731966        -1.180263         0.405800
 C        -0.095545         0.153950         0.705151
 O         0.678124         0.239712         1.638267
 C        -1.114965         0.481133        -1.435996
 O        -1.807673         1.099464        -2.481580
 H         0.041132         2.933311        -1.112581
 H        -0.881597         3.412238         0.377774
 H         0.746974         2.681677         0.659128
 H        -2.480073         0.751721         1.599233
 H        -2.898250         1.362456        -0.021542
 H        -2.677011        -1.089226        -0.931255
 H        -1.114714        -1.602173         1.323691
 H        -0.136115        -1.811574        -0.234135
 H        -0.321153        -0.087130        -2.058655
 H        -2.692968         1.246281        -2.182614
