19
Iteration:   903charge 0 multiplicity 1
 C        -0.105638         2.540954        -0.472931
 C        -0.682400         1.222632        -0.195226
 C        -1.918946         0.764878         0.807191
 C        -1.895558        -0.492946        -0.249362
 C        -0.679398        -1.287837         0.075389
 C         0.216242        -0.024360         0.441343
 O         1.204452         0.120579         1.146255
 C        -1.525188         0.513246        -1.258249
 O        -2.506622         1.487439        -1.562161
 H        -0.604443         2.940071        -1.403679
 H        -0.447445         3.239209         0.273943
 H         0.873319         2.547649        -0.624730
 H        -1.724793         0.655537         1.902268
 H        -2.819446         1.400973         0.545352
 H        -2.831252        -1.072629        -0.203070
 H        -0.795231        -1.939293         1.004487
 H        -0.190882        -1.835737        -0.705898
 H        -1.039355         0.166415        -2.173235
 H        -2.973599         1.348734        -2.390905
