19
Iteration:  4639charge 0 multiplicity 1
 C        -0.362285         2.605756        -0.030265
 C        -0.815876         1.176827         0.033560
 C        -2.357219         0.853542         0.202714
 C        -1.876914        -0.476580        -0.521042
 C        -0.895772        -1.123010         0.436346
 C        -0.146365         0.119579         0.824936
 O         0.875514         0.304167         1.539888
 C        -0.906666         0.350840        -1.295462
 O        -1.619608         1.108317        -2.363201
 H         0.536130         2.634297        -0.699204
 H        -1.187817         3.323529        -0.351910
 H        -0.223762         3.059273         1.036440
 H        -2.637029         0.695442         1.272210
 H        -3.226631         1.442920        -0.306714
 H        -2.610123        -1.197323        -0.950386
 H        -1.328215        -1.395756         1.448354
 H        -0.424497        -2.096465         0.012827
 H         0.029267        -0.256854        -1.584421
 H        -1.161086         1.123689        -3.175144
