19
Iteration:  1786
 C        -0.066398         2.661086        -0.045152
 C        -0.689800         1.204259        -0.094233
 C        -2.136307         0.798891         0.460078
 C        -1.935932        -0.553510        -0.406328
 C        -0.680981        -1.116518         0.214405
 C         0.082338         0.109206         0.705191
 O         1.021018         0.164104         1.492101
 C        -1.356135         0.422047        -1.415106
 O        -2.270765         1.227018        -2.120682
 H        -0.412909         3.386426        -0.879273
 H        -0.397390         3.007874         0.911445
 H         1.002852         2.538448        -0.108626
 H        -2.325828         0.646157         1.578779
 H        -2.894904         1.523828         0.088186
 H        -2.751409        -1.202740        -0.698226
 H        -0.950579        -1.821218         1.063433
 H         0.000691        -1.625947        -0.565179
 H        -0.470721         0.011781        -2.007919
 H        -1.893249         0.986681        -3.007908
