19
Iteration:  4777
 C        -0.252222         2.645027         0.057190
 C        -0.858093         1.209043        -0.002405
 C        -2.249305         0.779145         0.200035
 C        -1.916742        -0.509608        -0.528193
 C        -0.947590        -1.168273         0.486466
 C        -0.141434         0.195980         0.861110
 O         0.877698         0.302886         1.549426
 C        -0.911927         0.407514        -1.370078
 O        -1.712383         1.031311        -2.401180
 H         0.653237         2.621147         0.632154
 H        -0.119684         3.020719        -0.933961
 H        -0.998585         3.234007         0.446883
 H        -2.668550         0.746978         1.310482
 H        -2.997796         1.419418        -0.410737
 H        -2.707469        -1.113734        -1.155746
 H        -1.294165        -1.585458         1.442355
 H        -0.432221        -1.970914        -0.018096
 H        -0.005042        -0.043488        -1.783013
 H        -1.223875         1.628624        -3.012395
