19
Iteration:  2772charge 0 multiplicity 1
 C        -0.392286         2.584731         0.154882
 C        -0.881605         1.195804        -0.018687
 C        -2.395444         0.899429         0.211534
 C        -1.963357        -0.536761        -0.478958
 C        -0.878653        -1.121251         0.555851
 C        -0.081635         0.173150         0.771925
 O         1.004082         0.243164         1.285300
 C        -0.944361         0.459444        -1.274638
 O        -1.515299         1.020347        -2.383588
 H        -0.895057         3.008119         1.038454
 H         0.678981         2.651927         0.225748
 H        -0.921654         3.107770        -0.734317
 H        -2.885577         0.736532         1.134742
 H        -3.092309         1.383864        -0.459395
 H        -2.812750        -1.196324        -0.966962
 H        -1.383453        -1.565615         1.479785
 H        -0.249316        -1.957507         0.139779
 H         0.085583         0.248697        -1.764083
 H        -2.354629         1.521265        -2.257636
