19
Iteration:  1703
 C        -0.266303         2.521474        -0.139236
 C        -0.724657         1.140691        -0.110301
 C        -2.176884         0.773727         0.523281
 C        -1.950697        -0.514092        -0.386858
 C        -0.727804        -1.151109         0.322890
 C         0.141348         0.057742         0.675282
 O         1.128665         0.167025         1.381171
 C        -1.244169         0.517497        -1.347625
 O        -2.184562         1.274894        -2.156253
 H         0.793013         2.408553        -0.260811
 H        -0.693003         3.122158        -0.996657
 H        -0.514320         3.018105         0.933520
 H        -2.225366         0.813941         1.602103
 H        -2.886952         1.481461         0.082627
 H        -2.818440        -0.997624        -0.902799
 H        -0.844759        -1.748941         1.185804
 H        -0.029563        -1.721204        -0.270571
 H        -0.657374         0.174099        -2.196100
 H        -2.316265         2.233737        -1.889905
