19
Iteration:   842
 C        -0.080792         2.536259         0.038755
 C        -0.729932         1.213199        -0.031196
 C        -1.938392         0.861609         0.794650
 C        -2.071730        -0.429397        -0.077645
 C        -0.776635        -1.162604         0.305248
 C         0.177044         0.047530         0.287175
 O         1.350593         0.090754         0.583558
 C        -1.422107         0.547197        -1.225930
 O        -2.519730         1.148024        -1.891899
 H         0.852713         2.490407        -0.520557
 H        -0.705391         3.334267        -0.424786
 H         0.074734         2.988761         1.185190
 H        -1.935747         0.648768         1.867474
 H        -2.684204         1.611982         0.580099
 H        -3.130707        -0.737246        -0.175017
 H        -0.741745        -1.774424         1.183421
 H        -0.359622        -1.806081        -0.524043
 H        -0.842463        -0.006365        -2.020051
 H        -2.193599         2.066864        -1.996959
