19
Iteration:    88charge 0 multiplicity 1
 C        -0.061380         2.514433        -0.246641
 C        -0.679338         1.150251        -0.094253
 C        -1.641669         0.601441         1.025878
 C        -1.986187        -0.541635        -0.108267
 C        -0.587357        -1.240636        -0.184803
 C         0.281861        -0.021264         0.044349
 O         1.397848         0.064163         0.498622
 C        -1.775660         0.647387        -1.122774
 O        -2.881710         1.616992        -1.212216
 H        -0.267058         2.646986        -1.286940
 H        -0.561685         3.306271         0.272748
 H         0.990961         2.441181         0.049903
 H        -1.112533         0.285477         1.901253
 H        -2.389611         1.310422         1.364009
 H        -2.909746        -1.075777        -0.012413
 H        -0.507823        -2.123733         0.443455
 H        -0.324644        -1.693520        -1.143674
 H        -1.553030         0.432170        -2.134529
 H        -2.715933         2.268988        -0.474137
