19
Iteration:  1256charge 0 multiplicity 1
 C        -0.191516         2.618755        -0.044860
 C        -0.819279         1.209931        -0.036174
 C        -2.113651         0.752844         0.709157
 C        -1.900014        -0.472793        -0.286713
 C        -0.752408        -1.255771         0.270636
 C         0.145050         0.052759         0.554542
 O         1.253861         0.181758         1.029116
 C        -1.315006         0.495477        -1.328325
 O        -2.299556         1.253441        -2.092869
 H        -0.673872         3.322026         0.593700
 H         0.881515         2.545434         0.214110
 H        -0.197366         2.926585        -1.161816
 H        -2.128187         0.627022         1.806679
 H        -2.983555         1.364600         0.415848
 H        -2.783145        -1.073352        -0.694151
 H        -1.028910        -1.696686         1.193646
 H        -0.270046        -1.928295        -0.383489
 H        -0.598606         0.094952        -2.006388
 H        -2.600699         2.050058        -1.693472
