19
Iteration:  1056
 C        -0.430982         2.650289         0.057103
 C        -0.769613         1.245289         0.158488
 C        -2.164967         0.815055         0.760078
 C        -2.042054        -0.404863        -0.083571
 C        -0.793333        -1.068322         0.485563
 C         0.120771         0.042261         0.411820
 O         1.330911        -0.047099         0.234586
 C        -1.284959         0.399709        -1.118594
 O        -2.006921         1.274614        -1.965451
 H         0.570243         2.901254         0.588206
 H        -0.638883         3.071884        -0.949717
 H        -1.129517         3.123325         0.703689
 H        -2.424865         0.640799         1.850532
 H        -2.997064         1.416911         0.296950
 H        -2.946434        -0.919202        -0.434082
 H        -0.959475        -1.311343         1.536610
 H        -0.494093        -1.910356         0.063151
 H        -0.524958        -0.051783        -1.763493
 H        -1.721294         1.252231        -2.939496
