19
Iteration:  4969
 C        -0.529620         2.696871         0.071990
 C        -0.866495         1.294683         0.170866
 C        -2.346839         0.831947         0.219190
 C        -1.972976        -0.488613        -0.499949
 C        -1.020459        -1.049148         0.582814
 C        -0.055099         0.116384         0.791513
 O         1.107883         0.108809         1.205512
 C        -0.907513         0.309433        -1.299361
 O        -1.588284         1.083646        -2.368381
 H        -1.342185         3.409916         0.260772
 H         0.242614         2.878275         0.814661
 H        -0.105379         2.945526        -0.938206
 H        -2.945491         0.653753         1.293136
 H        -2.974783         1.403423        -0.439874
 H        -2.694968        -1.117912        -0.839949
 H        -1.498552        -1.359890         1.514132
 H        -0.367845        -1.789737         0.140250
 H         0.020315        -0.183567        -1.604521
 H        -0.726691         1.547503        -2.711348
