19
Iteration:  3805charge 0 multiplicity 1
 C        -0.206180         2.611007         0.081852
 C        -0.867230         1.218385         0.084313
 C        -2.362279         0.799702         0.167622
 C        -1.874414        -0.507291        -0.578614
 C        -0.835510        -1.133023         0.558678
 C        -0.128401         0.182269         0.807902
 O         0.832847         0.319096         1.544102
 C        -0.989412         0.367357        -1.404928
 O        -1.696101         1.081757        -2.380551
 H         0.304457         2.688986        -0.857276
 H        -0.865243         3.417951         0.157312
 H         0.539746         2.586989         0.835446
 H        -3.062489         0.682782         1.137292
 H        -2.903034         1.434479        -0.613650
 H        -2.506224        -1.259046        -1.130629
 H        -1.469395        -1.455812         1.433881
 H        -0.365440        -2.048314         0.170813
 H        -0.136784        -0.167646        -1.895112
 H        -1.041763         1.262225        -3.114444
