19
Iteration:  3064charge 0 multiplicity 1
 C        -0.343693         2.670003         0.162980
 C        -0.840551         1.215263        -0.032955
 C        -2.395245         0.781934         0.250446
 C        -1.936377        -0.540179        -0.476514
 C        -0.972833        -1.159564         0.564083
 C        -0.149664         0.144121         0.786605
 O         0.929386         0.372348         1.339041
 C        -0.987830         0.356911        -1.307630
 O        -1.391297         1.021893        -2.485581
 H         0.452796         2.935364        -0.600563
 H        -1.277939         3.303940         0.041082
 H         0.003621         3.036213         1.200202
 H        -2.908080         0.743310         1.269585
 H        -3.007310         1.486885        -0.344694
 H        -2.628081        -1.254453        -0.984876
 H        -1.575353        -1.519111         1.425004
 H        -0.319349        -1.988375         0.266326
 H        -0.059332        -0.050031        -1.694584
 H        -2.235045         1.386930        -2.274621
