19
Iteration:   707charge 0 multiplicity 1
 C        -0.126618         2.593463        -0.107604
 C        -0.669794         1.176922        -0.030364
 C        -1.869411         0.758162         0.927323
 C        -2.041482        -0.382352        -0.086694
 C        -0.777342        -1.198173         0.242009
 C         0.203909        -0.019258         0.300695
 O         1.403499         0.069616         0.559082
 C        -1.572520         0.513434        -1.199098
 O        -2.470918         1.395445        -1.805792
 H        -1.038570         3.310196        -0.065837
 H         0.476208         2.875985         0.828500
 H         0.458385         2.698378        -1.014900
 H        -1.691708         0.622163         1.927177
 H        -2.700694         1.466628         0.852896
 H        -2.985111        -0.925456        -0.125942
 H        -0.930746        -1.818626         1.173965
 H        -0.480372        -1.846084        -0.568460
 H        -1.120673        -0.008798        -2.045057
 H        -3.139681         0.895430        -2.252136
