19
Iteration:  4211
 C        -0.293679         2.525842         0.032506
 C        -0.868195         1.189724         0.041567
 C        -2.361483         0.802958         0.141071
 C        -1.905968        -0.540011        -0.469954
 C        -0.918642        -1.144732         0.488636
 C        -0.135853         0.159666         0.834850
 O         0.863036         0.359868         1.455595
 C        -0.932187         0.346848        -1.347517
 O        -1.628646         1.134788        -2.311805
 H         0.748986         2.498907        -0.413080
 H        -0.901853         3.234027        -0.591553
 H        -0.055052         2.914388         1.070606
 H        -2.856332         0.820351         1.130843
 H        -2.836568         1.506400        -0.460586
 H        -2.733589        -0.978871        -1.061108
 H        -1.391158        -1.541717         1.421406
 H        -0.271132        -1.999847         0.119375
 H         0.062830         0.013943        -1.817992
 H        -1.004093         1.546748        -3.012220
