19
Iteration:  1245
 C        -0.148485         2.658039        -0.163941
 C        -0.671422         1.207228        -0.037628
 C        -2.081121         0.671896         0.664749
 C        -1.973825        -0.525129        -0.268655
 C        -0.733382        -1.237428         0.269465
 C         0.127795         0.062644         0.527667
 O         1.175088         0.177489         1.112438
 C        -1.338582         0.527669        -1.324742
 O        -2.298467         1.300741        -2.054147
 H        -0.832956         3.315847         0.349590
 H         0.828408         2.796100         0.319172
 H        -0.154792         3.098851        -1.226750
 H        -2.014050         0.492157         1.755825
 H        -2.992267         1.250946         0.438041
 H        -2.902036        -1.161023        -0.468326
 H        -0.944263        -1.925498         1.048676
 H        -0.211179        -1.806296        -0.454141
 H        -0.718676         0.114708        -2.080950
 H        -2.730862         1.805858        -1.291925
