19
Iteration:  1826charge 0 multiplicity 1
 C        -0.332403         2.649232        -0.024574
 C        -0.734974         1.186468         0.004822
 C        -2.163635         0.739553         0.527306
 C        -1.983395        -0.518469        -0.430390
 C        -0.909645        -1.222977         0.423272
 C         0.026142         0.092460         0.680396
 O         1.170958         0.228187         1.144309
 C        -1.142523         0.412684        -1.269269
 O        -1.999798         1.300203        -2.188449
 H        -1.251994         3.299946        -0.044818
 H         0.270203         2.895869         0.885690
 H         0.401772         2.852171        -0.829534
 H        -2.309317         0.596686         1.535224
 H        -2.818669         1.428730         0.076334
 H        -2.758157        -1.120186        -0.939833
 H        -1.275022        -1.468410         1.443905
 H        -0.401831        -2.106187         0.035556
 H        -0.429311        -0.028425        -1.927022
 H        -1.754103         1.144683        -3.135637
