19
Iteration:  2126
 C        -0.423759         2.638593         0.126960
 C        -0.879054         1.213490         0.061642
 C        -2.360707         0.820961         0.420733
 C        -1.999104        -0.466606        -0.394244
 C        -0.875663        -1.071098         0.453759
 C        -0.004853         0.147034         0.632355
 O         1.153151         0.172968         1.029757
 C        -1.092089         0.330458        -1.275711
 O        -1.663600         1.175899        -2.210923
 H         0.212805         3.090954        -0.704071
 H        -1.345791         3.215673         0.417872
 H         0.196837         2.590718         1.055633
 H        -2.536601         0.937456         1.453987
 H        -3.137335         1.258891        -0.172251
 H        -2.693377        -1.202403        -0.786592
 H        -1.102518        -1.427044         1.507425
 H        -0.204498        -1.897618         0.033214
 H        -0.293411        -0.255440        -1.794669
 H        -1.772030         0.769731        -3.093212
