19
Iteration:  2723charge 0 multiplicity 1
 C        -0.470557         2.713061         0.218557
 C        -0.855060         1.200201         0.205561
 C        -2.294397         0.801198         0.253315
 C        -1.964847        -0.452410        -0.452522
 C        -0.954093        -1.076990         0.559999
 C        -0.100658         0.180087         0.800689
 O         1.053625         0.220177         1.184756
 C        -0.977913         0.344004        -1.381461
 O        -1.486549         0.999018        -2.535981
 H        -1.336326         3.249049         0.605823
 H         0.263923         2.712924         1.048115
 H        -0.098729         3.092485        -0.695992
 H        -2.894771         0.786226         1.280636
 H        -2.971691         1.531798        -0.352039
 H        -2.670271        -1.150151        -0.848011
 H        -1.521367        -1.363476         1.475211
 H        -0.330530        -1.883273         0.156474
 H        -0.137574        -0.206109        -1.771221
 H        -2.420120         1.222020        -2.410978
