19
Iteration:  4957charge 0 multiplicity 1
 C        -0.494746         2.726755         0.082001
 C        -0.844741         1.179845         0.108353
 C        -2.416910         0.836397         0.248678
 C        -1.975087        -0.437661        -0.460182
 C        -0.901751        -1.074905         0.536330
 C        -0.046240         0.172209         0.868099
 O         1.078141         0.067232         1.250359
 C        -1.047926         0.401167        -1.322720
 O        -1.537165         1.023178        -2.415595
 H        -1.435026         3.223550         0.293789
 H         0.250230         3.068755         0.747437
 H        -0.169907         3.065273        -0.916844
 H        -2.783124         0.912841         1.416820
 H        -2.907339         1.599963        -0.326940
 H        -2.574430        -1.063841        -1.059474
 H        -1.373368        -1.467087         1.418100
 H        -0.319656        -1.911748         0.193866
 H        -0.103277        -0.100312        -1.641942
 H        -0.977992         1.580433        -2.878175
