19
Iteration:  1855
 C        -0.412092         2.615152         0.052877
 C        -0.896752         1.212829         0.086746
 C        -2.361340         0.772823         0.501595
 C        -2.021201        -0.536058        -0.321027
 C        -0.796691        -1.074583         0.501123
 C         0.035541         0.114842         0.655302
 O         1.216737         0.125147         0.946002
 C        -1.169805         0.381461        -1.264019
 O        -1.761420         1.318404        -2.246752
 H        -1.132458         3.229029         0.469261
 H         0.505415         2.545371         0.679784
 H        -0.195745         2.808744        -1.025182
 H        -2.652545         0.690475         1.640566
 H        -3.079588         1.451952        -0.041852
 H        -2.680187        -1.339032        -0.685152
 H        -1.008777        -1.399690         1.503536
 H        -0.262682        -1.848305        -0.026718
 H        -0.297809        -0.133963        -1.739091
 H        -1.481731         1.079180        -3.189154
