19
Iteration:  2916charge 0 multiplicity 1
 C        -0.139979         2.607054        -0.001674
 C        -0.838520         1.210747        -0.048993
 C        -2.333153         0.650155         0.363857
 C        -1.872133        -0.504732        -0.513703
 C        -0.851955        -1.163753         0.362444
 C        -0.076067         0.233382         0.815237
 O         0.763402         0.388869         1.717286
 C        -1.015335         0.399786        -1.397158
 O        -1.674023         1.110272        -2.510809
 H         0.773496         2.752866         0.572669
 H         0.180603         2.757304        -1.025911
 H        -0.853631         3.369598         0.330099
 H        -2.282397         0.226786         1.327661
 H        -3.235602         1.162347         0.155307
 H        -2.501504        -1.243279        -1.126661
 H        -1.401083        -1.608340         1.241099
 H        -0.341641        -1.954740        -0.260641
 H        -0.117874        -0.040150        -1.989509
 H        -2.598613         1.420389        -2.151575
