19
Iteration:  3071
 C        -0.347949         2.706795         0.138809
 C        -0.783539         1.225061        -0.047937
 C        -2.390673         0.763463         0.274642
 C        -1.928303        -0.580140        -0.434605
 C        -1.001489        -1.203846         0.551396
 C        -0.129165         0.190845         0.774334
 O         0.884700         0.342752         1.385873
 C        -0.957254         0.454879        -1.336946
 O        -1.435904         1.017342        -2.508039
 H         0.382488         2.947321        -0.628955
 H        -1.248036         3.341996        -0.031780
 H         0.089313         2.832357         1.065621
 H        -2.835334         0.446662         1.175183
 H        -2.901415         1.427176        -0.358947
 H        -2.584322        -1.325989        -0.777577
 H        -1.462317        -1.415841         1.538434
 H        -0.497193        -2.139833         0.176729
 H         0.060063        -0.108728        -1.540564
 H        -2.186407         1.562216        -2.376593
