19
Iteration:  1050
 C        -0.407007         2.627703         0.085918
 C        -0.769252         1.221678         0.173255
 C        -2.163232         0.807158         0.748178
 C        -2.061827        -0.392493        -0.081419
 C        -0.810197        -1.039805         0.532239
 C         0.129696         0.066275         0.363559
 O         1.298373        -0.037799         0.251841
 C        -1.272497         0.391625        -1.186820
 O        -2.032863         1.273830        -1.953634
 H         0.458609         2.867525         0.580404
 H        -0.433416         2.927575        -0.963998
 H        -1.218360         3.257680         0.606257
 H        -2.292152         0.652026         1.790956
 H        -2.924769         1.439587         0.365464
 H        -2.848971        -1.100465        -0.441641
 H        -0.767419        -1.282163         1.632366
 H        -0.315081        -2.073627         0.022020
 H        -0.570263        -0.126611        -1.871264
 H        -1.555192         1.484576        -2.800992
