19
Iteration:  1147
 C        -0.005090         2.531263        -0.079686
 C        -0.690395         1.141318        -0.089502
 C        -1.993198         0.839160         0.672463
 C        -1.926662        -0.512935        -0.289733
 C        -0.698759        -1.235083         0.248965
 C         0.144791         0.045999         0.511910
 O         1.195029         0.221194         1.077544
 C        -1.435922         0.537397        -1.293106
 O        -2.537120         1.234535        -2.020504
 H         0.040969         2.926595        -1.037261
 H        -0.574962         3.218962         0.531230
 H         1.060352         2.561971         0.226925
 H        -1.967870         0.792836         1.757957
 H        -2.827384         1.423182         0.348593
 H        -2.896627        -1.033962        -0.572188
 H        -0.781598        -1.864663         1.091711
 H        -0.192317        -1.790826        -0.488695
 H        -0.840021         0.274016        -2.134156
 H        -2.769017         2.042802        -1.486604
