19
Iteration:  1194
 C        -0.103355         2.618264        -0.338098
 C        -0.608607         1.159136        -0.150200
 C        -1.906344         0.726893         0.692036
 C        -1.957637        -0.538637        -0.210615
 C        -0.583392        -1.280367         0.096510
 C         0.160188         0.011235         0.481359
 O         0.979338         0.176637         1.379700
 C        -1.418760         0.559783        -1.307167
 O        -2.496640         1.423268        -1.816013
 H        -0.762257         3.168822        -0.973861
 H         0.180110         3.204255         0.519504
 H         0.758130         2.595573        -1.027928
 H        -1.888255         0.490436         1.723205
 H        -2.603750         1.555757         0.514518
 H        -2.834875        -1.064090        -0.580443
 H        -0.566078        -2.161465         0.802069
 H        -0.024165        -1.702913        -0.859975
 H        -0.963032         0.116107        -2.243471
 H        -2.495308         1.141996        -2.703468
