19
Iteration:  1043
 C        -0.394671         2.640466         0.119744
 C        -0.789266         1.178261         0.181594
 C        -2.171717         0.826509         0.738032
 C        -2.063542        -0.455957        -0.129654
 C        -0.821692        -1.101484         0.590731
 C         0.115471         0.109928         0.344678
 O         1.338777        -0.017324         0.269829
 C        -1.288027         0.401498        -1.269250
 O        -2.079949         1.283351        -1.959248
 H         0.639974         2.877144         0.596669
 H        -0.064081         2.848825        -0.935100
 H        -1.214705         3.356558         0.345757
 H        -2.090607         0.705116         1.858284
 H        -2.900069         1.650481         0.468285
 H        -2.817518        -1.195231        -0.295560
 H        -0.813422        -1.236778         1.673841
 H        -0.367794        -1.890972         0.048402
 H        -0.570312        -0.253579        -1.813456
 H        -1.457852         1.696492        -2.520491
