19
Iteration:  4817
 C        -0.326622         2.644240        -0.137214
 C        -0.718031         1.242077        -0.056775
 C        -2.195135         0.803547         0.378906
 C        -1.957904        -0.535811        -0.407003
 C        -0.801877        -1.234181         0.315188
 C         0.004685         0.204989         0.780463
 O         0.657173         0.236684         1.803462
 C        -1.048740         0.344403        -1.411097
 O        -1.719453         1.121246        -2.456359
 H         0.446113         2.918119         0.629430
 H         0.179071         2.955421        -1.084023
 H        -1.126887         3.474323        -0.041265
 H        -2.467198         0.897138         1.351603
 H        -2.850678         1.387577        -0.136756
 H        -2.830723        -0.969201        -0.714631
 H        -1.003409        -1.935864         1.209910
 H        -0.110393        -1.881266        -0.315477
 H        -0.111792        -0.037031        -1.905386
 H        -1.090235         1.838596        -2.752402
