19
Iteration:   107charge 0 multiplicity 1
 C        -0.122979         2.538221        -0.308517
 C        -0.672125         1.136628        -0.083885
 C        -1.697393         0.474028         1.066229
 C        -1.976534        -0.478863        -0.056412
 C        -0.652845        -1.249302        -0.120940
 C         0.292176        -0.006422         0.082794
 O         1.460298         0.061961         0.407029
 C        -1.797423         0.672884        -1.045925
 O        -2.739244         1.678749        -1.319311
 H        -0.669988         3.242454        -0.972937
 H        -0.189912         3.027751         0.788149
 H         0.933184         2.636292        -0.533514
 H        -1.374451         0.100896         2.025571
 H        -2.567891         1.081994         1.273857
 H        -2.843450        -1.102100        -0.080656
 H        -0.459902        -2.115314         0.704770
 H        -0.566557        -1.724136        -1.097128
 H        -1.526100         0.408852        -2.100831
 H        -3.224896         1.568154        -0.493542
