19
Iteration:  2501charge 0 multiplicity 1
 C        -0.346034         2.646430         0.056161
 C        -0.875362         1.265452        -0.093420
 C        -2.369946         0.719872         0.400343
 C        -1.914429        -0.523626        -0.440895
 C        -0.873740        -1.061528         0.512741
 C        -0.049972         0.175031         0.704765
 O         0.991618         0.174187         1.341127
 C        -1.003103         0.406672        -1.334352
 O        -1.652825         1.108571        -2.390445
 H         0.718388         2.475603        -0.040381
 H        -0.713106         3.337940        -0.684897
 H        -0.711583         3.037034         1.029073
 H        -2.484371         0.418555         1.553172
 H        -3.256862         1.229920        -0.140200
 H        -2.461223        -1.171445        -1.072475
 H        -1.407710        -1.426695         1.387260
 H        -0.095886        -1.750070         0.058493
 H        -0.012957         0.088493        -1.685827
 H        -2.272296         1.706569        -1.956404
