19
Iteration:   877
 C        -0.079156         2.488836        -0.268097
 C        -0.679734         1.189689        -0.117127
 C        -1.925488         0.698494         0.766363
 C        -2.029461        -0.476939        -0.197983
 C        -0.663779        -1.181651         0.232785
 C         0.215148         0.057010         0.391968
 O         1.298067         0.103422         0.954910
 C        -1.547842         0.514091        -1.245349
 O        -2.597222         1.441651        -1.730037
 H         0.082549         2.609375        -1.360659
 H        -0.709539         3.365508        -0.006317
 H         1.008264         2.571878         0.254596
 H        -1.797070         0.417481         1.883627
 H        -2.623653         1.536773         0.647433
 H        -2.944215        -1.054915        -0.229853
 H        -0.579365        -1.715516         1.129495
 H        -0.244727        -1.790220        -0.563104
 H        -0.971065         0.116984        -2.147828
 H        -2.399060         1.761597        -2.618895
