19
Iteration:  4009
 C        -0.202540         2.685810        -0.169961
 C        -0.715177         1.234879        -0.076737
 C        -2.138726         0.818618         0.326375
 C        -1.886047        -0.476549        -0.486911
 C        -0.794181        -1.209145         0.354012
 C        -0.050238         0.104613         0.820813
 O         0.587588         0.237748         1.866767
 C        -0.991802         0.361374        -1.404206
 O        -1.844637         1.096849        -2.422187
 H         0.819759         2.864528         0.215347
 H        -0.357713         3.253445        -1.152919
 H        -0.862776         3.262555         0.420578
 H        -2.258731         0.626040         1.448409
 H        -3.055112         1.378269        -0.152372
 H        -2.547256        -1.149074        -0.939397
 H        -1.205996        -1.886720         1.082802
 H        -0.121733        -1.716940        -0.321536
 H        -0.077367        -0.029340        -1.888781
 H        -1.364281         1.815630        -2.837732
