19
Iteration:  4822charge 0 multiplicity 1
 C        -0.318157         2.667530        -0.157345
 C        -0.699756         1.191832        -0.064015
 C        -2.169500         0.782564         0.395332
 C        -1.891156        -0.527732        -0.395742
 C        -0.829870        -1.255085         0.297752
 C         0.015301         0.200624         0.810126
 O         0.626186         0.252009         1.795503
 C        -1.059786         0.394665        -1.408718
 O        -1.738369         1.124635        -2.460969
 H         0.413036         2.818895         0.614663
 H         0.232196         2.826773        -1.084563
 H        -1.090942         3.383320        -0.176250
 H        -2.501032         0.854647         1.547726
 H        -2.932575         1.473888        -0.198132
 H        -2.892840        -1.061865        -0.787625
 H        -1.167289        -1.859615         1.098159
 H        -0.027713        -1.780608        -0.184904
 H        -0.114672         0.043032        -1.821447
 H        -1.172961         1.829450        -2.744938
