19
Iteration:  3526charge 0 multiplicity 1
 C        -0.390529         2.650314         0.076827
 C        -0.854886         1.257747         0.061654
 C        -2.314452         0.856215         0.277368
 C        -1.882510        -0.517017        -0.549539
 C        -0.858697        -1.124983         0.420986
 C        -0.074353         0.156673         0.802286
 O         0.848354         0.299766         1.579002
 C        -0.933375         0.306320        -1.438523
 O        -1.660068         1.003889        -2.440952
 H         0.623087         2.720108        -0.279306
 H        -1.005509         3.446177        -0.342099
 H        -0.253981         2.877693         1.103525
 H        -2.695824         0.827513         1.375402
 H        -3.071809         1.449111        -0.272809
 H        -2.673350        -1.224264        -1.027084
 H        -1.366682        -1.568702         1.311168
 H        -0.151475        -1.952628         0.074039
 H        -0.123704        -0.221124        -1.891117
 H        -1.064333         1.773139        -2.739622
