19
Iteration:   813
 C        -0.117829         2.733637         0.195136
 C        -0.766616         1.270027         0.075377
 C        -2.118682         0.904107         0.841483
 C        -2.049635        -0.413380        -0.073058
 C        -0.777951        -1.173974         0.464741
 C         0.240602        -0.004254         0.360949
 O         1.451669        -0.028733         0.241093
 C        -1.438473         0.474204        -1.230253
 O        -2.453465         1.144898        -2.040586
 H         0.937275         2.633120         0.477166
 H        -0.236229         3.265269        -0.761481
 H        -0.506346         3.252210         0.980878
 H        -2.100222         0.500348         1.949630
 H        -2.920423         1.626143         0.576490
 H        -2.981045        -0.911151        -0.296843
 H        -0.954517        -1.549510         1.494691
 H        -0.429091        -2.020845        -0.103069
 H        -0.790135        -0.153671        -1.886728
 H        -2.124712         2.017241        -1.953945
