19
Iteration:   768
 C        -0.295080         2.558998         0.068891
 C        -0.767141         1.176759         0.157455
 C        -2.164154         0.851430         0.829747
 C        -2.094572        -0.390687        -0.121550
 C        -0.764670        -1.190970         0.606049
 C         0.202163         0.068195         0.384399
 O         1.363961         0.025041        -0.015327
 C        -1.324555         0.498404        -1.186559
 O        -2.210254         1.304855        -1.800154
 H         0.062864         2.841238         1.041446
 H         0.541702         2.632380        -0.622159
 H        -1.011771         3.292388        -0.225190
 H        -1.987542         0.721926         2.010443
 H        -2.903452         1.594853         0.497730
 H        -3.037035        -0.928219        -0.326558
 H        -0.928707        -1.502376         1.648625
 H        -0.586355        -2.091662         0.002791
 H        -0.604477        -0.079113        -1.822759
 H        -1.980972         1.385657        -2.713759
