19
Iteration:   220charge 0 multiplicity 1
 C        -0.019744         2.559084         0.175751
 C        -0.742054         1.213825         0.202643
 C        -1.887288         0.723547         1.079659
 C        -1.979524        -0.508216         0.022775
 C        -0.740284        -1.244313         0.300006
 C         0.178864         0.046829         0.120266
 O         1.330072         0.116500        -0.295848
 C        -1.592766         0.555080        -1.097675
 O        -2.493572         1.364808        -1.705132
 H         0.991351         2.506036         0.620967
 H         0.119443         2.931853        -0.800303
 H        -0.659819         3.239468         0.809379
 H        -1.850199         0.635266         2.128943
 H        -2.841652         1.194146         0.864550
 H        -3.009790        -0.933844        -0.005630
 H        -0.740846        -1.522810         1.337991
 H        -0.598854        -2.105719        -0.417557
 H        -0.886086         0.274168        -1.855334
 H        -2.991011         1.941627        -1.022349
