19
Iteration:  4473charge 0 multiplicity 1
 C        -0.304063         2.588777         0.070572
 C        -0.875745         1.208546         0.011777
 C        -2.455736         0.807716         0.113951
 C        -1.867863        -0.510373        -0.519043
 C        -0.895510        -1.095503         0.557238
 C        -0.156233         0.144509         0.810111
 O         0.929174         0.269000         1.398164
 C        -0.958406         0.381152        -1.285824
 O        -1.618081         1.104223        -2.313042
 H         0.792690         2.434284         0.368728
 H        -0.286612         3.136304        -0.901851
 H        -0.754297         3.305938         0.700275
 H        -2.885659         0.870522         1.182661
 H        -3.056724         1.461631        -0.430096
 H        -2.421943        -1.327636        -0.971922
 H        -1.305160        -1.331819         1.540361
 H        -0.314519        -1.975597         0.170131
 H         0.035155        -0.006661        -1.632513
 H        -1.095985         1.176051        -3.157181
