19
Iteration:  3010charge 0 multiplicity 1
 C        -0.474304         2.740040         0.110978
 C        -0.943602         1.339644         0.003024
 C        -2.363643         0.777306         0.216318
 C        -1.879582        -0.517916        -0.447581
 C        -0.994584        -1.240316         0.604472
 C        -0.156839         0.139689         0.841495
 O         0.996728         0.225938         1.255002
 C        -0.906935         0.451433        -1.275945
 O        -1.394554         0.988739        -2.490596
 H         0.643991         2.780227         0.080566
 H        -0.678277         3.403964        -0.771798
 H        -0.758621         3.141175         1.147421
 H        -2.757227         0.568934         1.292227
 H        -3.229240         1.459319        -0.206427
 H        -2.605838        -1.092800        -1.088233
 H        -1.530611        -1.389992         1.563563
 H        -0.408543        -2.105165         0.309231
 H         0.068068         0.121600        -1.559777
 H        -2.203309         1.405599        -2.310408
