19
Iteration:  3378charge 0 multiplicity 1
 C        -0.442830         2.578409         0.084750
 C        -0.812093         1.186667        -0.001767
 C        -2.369282         0.840619         0.250396
 C        -1.939065        -0.485504        -0.504788
 C        -0.828222        -1.167752         0.420179
 C        -0.039111         0.145928         0.825737
 O         0.832287         0.334121         1.585621
 C        -0.937056         0.458153        -1.349206
 O        -1.567082         0.973440        -2.514036
 H         0.635993         2.778177        -0.009620
 H        -0.926373         3.433629        -0.450321
 H        -0.572000         2.784992         1.117136
 H        -2.544659         0.870258         1.330244
 H        -3.032472         1.512507        -0.273258
 H        -2.623300        -1.212683        -0.995632
 H        -1.051298        -1.811845         1.248700
 H        -0.112855        -1.682277        -0.234880
 H        -0.141118        -0.195517        -1.888685
 H        -1.935111         1.930361        -2.361247
