19
Iteration:  3444charge 0 multiplicity 1
 C        -0.212823         2.567619        -0.099762
 C        -0.755318         1.172382        -0.019391
 C        -2.238725         0.680864         0.219415
 C        -1.805683        -0.544911        -0.592415
 C        -0.706659        -1.209969         0.386878
 C        -0.163237         0.119455         0.880030
 O         0.656055         0.429820         1.801185
 C        -1.007677         0.406683        -1.468642
 O        -1.746480         1.225062        -2.325447
 H         0.888050         2.584434        -0.275790
 H        -0.786707         3.000490        -0.992394
 H        -0.548384         3.214098         0.731305
 H        -2.423422         0.663263         1.282379
 H        -2.809967         1.485481        -0.272042
 H        -2.558823        -1.247779        -1.110784
 H        -1.318473        -1.765278         1.065998
 H         0.028113        -1.814799        -0.123840
 H        -0.175552        -0.174897        -2.067300
 H        -2.643348         1.291617        -2.175270
