19
Iteration:  4180charge 0 multiplicity 1
 C        -0.409482         2.676463         0.083408
 C        -0.855156         1.272197         0.078445
 C        -2.433198         0.742362         0.225816
 C        -1.934849        -0.525479        -0.421293
 C        -1.022539        -1.080064         0.544160
 C        -0.167552         0.204277         0.843063
 O         0.992598         0.186713         1.312492
 C        -0.964207         0.352356        -1.334676
 O        -1.447528         1.040071        -2.446510
 H         0.502707         2.783958        -0.554430
 H        -1.180246         3.408601        -0.337739
 H        -0.110809         3.216748         1.167272
 H        -2.709288         0.587137         1.202436
 H        -3.015074         1.381629        -0.296888
 H        -2.623899        -0.954359        -1.085961
 H        -1.487951        -1.449830         1.469211
 H        -0.345960        -1.869455         0.110207
 H         0.059998         0.018580        -1.501491
 H        -0.838358         1.546875        -2.925373
