19
Iteration:  1876
 C        -0.397345         2.713556         0.125846
 C        -0.901858         1.286491         0.124371
 C        -2.327120         0.803563         0.448381
 C        -1.988481        -0.514897        -0.296183
 C        -0.881410        -1.231450         0.476724
 C        -0.002501         0.075820         0.606621
 O         1.145864         0.196479         0.817347
 C        -1.106044         0.445551        -1.193383
 O        -1.677389         1.171734        -2.188627
 H        -0.958083         3.199313         0.921212
 H         0.730645         2.741720         0.311754
 H        -0.653649         3.087911        -0.924507
 H        -2.697332         0.758774         1.592470
 H        -3.107216         1.307216        -0.216773
 H        -2.847257        -1.109857        -0.641796
 H        -1.185318        -1.643164         1.471534
 H        -0.276687        -1.992753        -0.089577
 H        -0.119397         0.051101        -1.653654
 H        -1.590163         0.781081        -3.015779
