19
Iteration:  3503
 C        -0.260080         2.659604         0.035906
 C        -0.759371         1.220415        -0.014166
 C        -2.262245         0.697778         0.283850
 C        -1.909520        -0.529484        -0.506645
 C        -0.854023        -1.126864         0.404882
 C        -0.107856         0.122708         0.793838
 O         0.762977         0.331169         1.687255
 C        -0.960029         0.474253        -1.358099
 O        -1.747185         1.062153        -2.483508
 H         0.704605         2.995600        -0.242875
 H        -0.981340         3.222432        -0.472585
 H        -0.407220         2.970845         1.066380
 H        -2.469717         0.824284         1.380068
 H        -2.987237         1.415592        -0.204652
 H        -2.732322        -1.211791        -1.079765
 H        -1.168826        -1.811568         1.247580
 H        -0.098531        -1.771964        -0.181015
 H        -0.077466         0.092249        -1.863988
 H        -1.159177         0.774730        -3.242933
