19
Iteration:   203charge 0 multiplicity 1
 C        -0.051896         2.504599         0.273977
 C        -0.760098         1.197537         0.097635
 C        -1.947463         0.753646         1.017362
 C        -2.054686        -0.403913         0.034202
 C        -0.649668        -1.231056         0.328074
 C         0.241729        -0.016971         0.105995
 O         1.369386         0.097138        -0.295196
 C        -1.524085         0.598963        -1.060181
 O        -2.635415         1.337829        -1.694274
 H         0.569628         2.485586         1.190379
 H         0.612628         2.706944        -0.662218
 H        -0.582786         3.451718         0.343876
 H        -1.632585         0.470764         2.096097
 H        -2.708814         1.555975         1.152150
 H        -2.899191        -1.099577        -0.134322
 H        -0.557545        -1.729522         1.332690
 H        -0.361056        -1.995385        -0.401598
 H        -1.006966         0.066193        -1.908951
 H        -2.709782         2.304229        -1.454335
