19
Iteration:  4388charge 0 multiplicity 1
 C        -0.375764         2.734467         0.092943
 C        -0.871259         1.253192         0.105005
 C        -2.372190         0.827865         0.209695
 C        -1.926839        -0.477375        -0.513205
 C        -0.938574        -1.166389         0.548283
 C        -0.124446         0.172620         0.870605
 O         0.976315         0.184819         1.422280
 C        -0.999909         0.344906        -1.349592
 O        -1.553285         0.973003        -2.548567
 H         0.425158         2.874095        -0.564886
 H        -1.253630         3.301339        -0.215587
 H        -0.111141         3.009138         1.171639
 H        -2.815388         1.166212         1.262497
 H        -2.892386         1.428428        -0.582902
 H        -2.670827        -1.106896        -0.978102
 H        -1.383605        -1.408721         1.549249
 H        -0.128871        -1.883154         0.184373
 H         0.018823        -0.085941        -1.537777
 H        -1.120934         1.907887        -2.506354
