19
Iteration:  1743
 C        -0.063993         2.537274        -0.106301
 C        -0.688515         1.224579        -0.164301
 C        -2.035253         0.740276         0.595728
 C        -1.928094        -0.511084        -0.398726
 C        -0.651115        -1.217045         0.186827
 C         0.093500         0.109474         0.535350
 O         0.783746         0.268742         1.480723
 C        -1.274275         0.546401        -1.377796
 O        -2.263877         1.158389        -2.062631
 H         0.648422         2.839893        -0.954164
 H        -0.682758         3.402888         0.009695
 H         0.751524         2.566248         0.621803
 H        -1.861929         0.692003         1.768117
 H        -2.961737         1.349854         0.396975
 H        -2.685045        -1.211146        -0.717160
 H        -0.878044        -1.826878         1.094501
 H        -0.045753        -1.806385        -0.534275
 H        -0.498737        -0.037121        -1.972643
 H        -2.028299         2.049371        -2.314536
