19
Iteration:  1118
 C        -0.150064         2.590464         0.064237
 C        -0.799579         1.178616        -0.010324
 C        -2.111177         0.796199         0.702553
 C        -2.040289        -0.483647        -0.235164
 C        -0.779626        -1.110293         0.397265
 C         0.170460         0.114448         0.395354
 O         1.350994         0.124143         0.781449
 C        -1.405484         0.411611        -1.269378
 O        -2.252695         1.281408        -2.066349
 H         0.394734         2.857312        -0.895398
 H        -0.793477         3.457752         0.261514
 H         0.677671         2.531717         0.823317
 H        -2.016899         0.532279         1.752928
 H        -2.971413         1.489818         0.587077
 H        -2.960026        -0.997456        -0.536824
 H        -0.779089        -1.584710         1.431355
 H        -0.340718        -1.951939        -0.392191
 H        -0.673253        -0.026905        -2.034301
 H        -3.193029         1.248833        -1.660546
