19
Iteration:  3179charge 0 multiplicity 1
 C        -0.088015         2.615737        -0.063117
 C        -0.746193         1.180279        -0.042830
 C        -2.257147         0.686232         0.297246
 C        -1.831249        -0.565398        -0.599581
 C        -0.734408        -1.208998         0.316012
 C        -0.089189         0.168769         0.880697
 O         0.639747         0.440951         1.884652
 C        -1.012738         0.319979        -1.487207
 O        -1.913844         1.198334        -2.390375
 H         0.952107         2.670311        -0.367129
 H        -0.716092         3.341937        -0.624919
 H        -0.115166         3.019433         0.930994
 H        -2.552340         0.699651         1.355144
 H        -3.010974         1.400883        -0.151887
 H        -2.532946        -1.167270        -1.082295
 H        -1.238392        -1.693096         1.139642
 H        -0.038742        -1.907755        -0.139517
 H        -0.217523        -0.039548        -1.985070
 H        -1.526165         1.106323        -3.248691
