19
Iteration:  4471charge 0 multiplicity 1
 C        -0.311004         2.583131         0.084583
 C        -0.890305         1.222156         0.009255
 C        -2.470381         0.826685         0.109762
 C        -1.867453        -0.521415        -0.525145
 C        -0.904441        -1.096460         0.544876
 C        -0.162872         0.151477         0.818624
 O         0.959434         0.263546         1.399044
 C        -0.980429         0.393446        -1.293928
 O        -1.603752         1.096058        -2.319821
 H         0.835651         2.444893         0.392368
 H        -0.326082         3.104533        -0.949708
 H        -0.727150         3.317803         0.790775
 H        -2.814411         0.821103         1.112385
 H        -3.053013         1.454079        -0.442989
 H        -2.451745        -1.350943        -0.900864
 H        -1.264831        -1.365098         1.527548
 H        -0.267616        -1.929315         0.269580
 H         0.019916        -0.067555        -1.642669
 H        -1.077755         1.122218        -3.066022
