19
Iteration:  3452charge 0 multiplicity 1
 C        -0.220161         2.588392        -0.059345
 C        -0.695962         1.141593        -0.069642
 C        -2.268050         0.703933         0.249509
 C        -1.825473        -0.597817        -0.592013
 C        -0.736847        -1.200401         0.374539
 C        -0.127937         0.179908         0.884039
 O         0.628587         0.408965         1.772612
 C        -1.035605         0.356020        -1.431562
 O        -1.737676         1.239568        -2.335673
 H         0.900788         2.736040        -0.281364
 H        -0.686155         3.059333        -1.056238
 H        -0.389100         3.281688         0.767837
 H        -2.785733         0.594249         1.216320
 H        -2.602843         1.599203        -0.225523
 H        -2.414682        -1.258258        -1.042451
 H        -1.103471        -1.877667         1.132037
 H         0.022811        -1.726806        -0.155196
 H        -0.124637         0.120326        -2.045446
 H        -2.631959         1.053516        -2.220630
