19
Iteration:  4547charge 0 multiplicity 1
 C        -0.189769         2.699166        -0.084828
 C        -0.790237         1.273750        -0.072081
 C        -2.220772         0.916522         0.334449
 C        -1.891781        -0.515732        -0.439953
 C        -0.760425        -1.214218         0.294272
 C        -0.101897         0.104216         0.770403
 O         0.638177         0.243145         1.767455
 C        -0.983387         0.326304        -1.352798
 O        -1.799155         1.017634        -2.414374
 H         0.832762         2.726325         0.442901
 H        -0.075669         3.259213        -1.046543
 H        -0.888691         3.358979         0.405420
 H        -2.590175         0.927208         1.276737
 H        -2.815219         1.475055        -0.268454
 H        -2.638913        -1.148919        -0.898429
 H        -0.924036        -1.796484         1.171348
 H        -0.036671        -1.678951        -0.340912
 H        -0.197197        -0.263871        -1.869493
 H        -1.321066         1.892601        -2.571521
