19
Iteration:  2961
 C        -0.458421         2.742311         0.023764
 C        -0.851493         1.242613        -0.005713
 C        -2.378362         0.834632         0.224171
 C        -1.958965        -0.587324        -0.443533
 C        -0.905743        -1.180853         0.470419
 C         0.033664         0.069042         0.799118
 O         0.933628         0.271597         1.551617
 C        -0.993027         0.362946        -1.388356
 O        -1.504460         1.116192        -2.441815
 H         0.495482         2.824507         0.582814
 H        -0.090790         3.113953        -0.950721
 H        -1.124219         3.328924         0.612094
 H        -2.799280         1.110199         1.155313
 H        -2.973357         1.142515        -0.564319
 H        -2.714740        -1.296522        -0.785523
 H        -1.258138        -1.637438         1.420619
 H        -0.256962        -1.872262        -0.139526
 H        -0.059937        -0.224209        -1.820667
 H        -2.399786         1.516159        -2.092903
