19
Iteration:  1953
 C        -0.294002         2.640892         0.091110
 C        -0.768199         1.156350        -0.006629
 C        -2.185088         0.757623         0.367957
 C        -1.943084        -0.498052        -0.427837
 C        -0.838276        -1.084442         0.380119
 C         0.013923         0.093240         0.729596
 O         1.089275         0.255546         1.256116
 C        -1.168442         0.389667        -1.338005
 O        -1.951798         1.222442        -2.205497
 H         0.408166         2.579110         0.856251
 H         0.227697         2.822729        -0.893339
 H        -1.232266         3.201456         0.321623
 H        -2.368265         0.697603         1.490249
 H        -2.769311         1.570356        -0.110625
 H        -2.690118        -1.202264        -0.804139
 H        -1.268835        -1.604943         1.273706
 H        -0.167412        -1.715568        -0.253309
 H        -0.348079        -0.005011        -2.020022
 H        -2.265710         0.565280        -2.891307
