19
Iteration:   990
 C        -0.035227         2.537591         0.011506
 C        -0.766638         1.263080        -0.009263
 C        -2.070850         0.830180         0.769395
 C        -2.001621        -0.413921        -0.202545
 C        -0.750393        -1.135259         0.256255
 C         0.148635         0.096902         0.415442
 O         1.325757         0.095415         0.701950
 C        -1.433493         0.475184        -1.249763
 O        -2.438532         1.142295        -1.976496
 H        -0.225525         3.110130         1.026529
 H         1.034508         2.257965        -0.144460
 H        -0.206595         3.256402        -0.774845
 H        -1.939058         0.803077         1.909945
 H        -3.004887         1.476284         0.571459
 H        -2.875777        -1.053467        -0.403252
 H        -0.809288        -1.453684         1.315457
 H        -0.301831        -1.857016        -0.303705
 H        -0.707701        -0.051603        -1.933770
 H        -2.725655         1.869619        -1.453053
