19
Iteration:  1580charge 0 multiplicity 1
 C        -0.345370         2.680433         0.282122
 C        -0.832199         1.240304         0.084741
 C        -2.246801         0.805017         0.458554
 C        -1.929356        -0.511741        -0.366343
 C        -0.857372        -1.135597         0.524570
 C         0.054205         0.047573         0.627402
 O         1.278293         0.119682         0.758634
 C        -1.140000         0.499271        -1.285375
 O        -2.030568         1.217616        -2.168896
 H        -1.135191         3.271862         0.801481
 H         0.698879         2.598474         0.593256
 H        -0.443028         3.076090        -0.802246
 H        -2.453099         0.725118         1.565465
 H        -3.093484         1.329873         0.028700
 H        -2.646843        -1.249573        -0.702107
 H        -1.177664        -1.646687         1.409862
 H        -0.367683        -1.943540         0.065878
 H        -0.285326         0.238191        -1.926094
 H        -1.965531         0.716653        -3.057274
