19
Iteration:  2626charge 0 multiplicity 1
 C        -0.262441         2.640752        -0.068151
 C        -0.718800         1.175142        -0.026000
 C        -2.208093         0.791555         0.237077
 C        -1.892985        -0.620717        -0.480492
 C        -0.764759        -1.160761         0.416950
 C        -0.132885         0.154114         0.770572
 O         0.770991         0.286103         1.549142
 C        -1.067686         0.376431        -1.329369
 O        -1.720395         1.195918        -2.338340
 H        -0.814294         3.112010        -0.872710
 H        -0.534224         3.085194         0.910552
 H         0.787147         2.683869        -0.224552
 H        -2.531353         0.743764         1.249076
 H        -2.930575         1.467421        -0.229714
 H        -2.822315        -1.203400        -0.667821
 H        -1.143676        -1.570979         1.385591
 H         0.076068        -1.735183        -0.030274
 H        -0.308199        -0.086686        -1.903952
 H        -2.488504         1.525582        -1.904185
