19
Iteration:  2409
 C        -0.350588         2.658199         0.162474
 C        -0.888990         1.161139         0.042030
 C        -2.375797         0.779033         0.385984
 C        -1.919243        -0.457259        -0.495002
 C        -0.910799        -1.164547         0.593233
 C        -0.063337         0.109132         0.819388
 O         1.093804         0.242736         1.141785
 C        -1.009718         0.492236        -1.308363
 O        -1.640990         1.110844        -2.471261
 H         0.197648         2.872762         1.083093
 H         0.339118         2.978774        -0.665790
 H        -1.206004         3.291012         0.049114
 H        -2.572258         0.550895         1.485991
 H        -3.165174         1.259492        -0.144055
 H        -2.735537        -0.988267        -1.080258
 H        -1.514238        -1.410354         1.446105
 H        -0.317351        -1.934048         0.231170
 H        -0.037099         0.287633        -1.696021
 H        -2.473188         0.514057        -2.514207
