19
Iteration:  4252charge 0 multiplicity 1
 C        -0.212548         2.582909         0.004103
 C        -0.745934         1.228740        -0.069172
 C        -2.197382         0.784994         0.291289
 C        -1.878980        -0.459656        -0.542847
 C        -0.848210        -1.154035         0.424658
 C        -0.046278         0.200643         0.781899
 O         0.665572         0.254850         1.750460
 C        -0.962974         0.416904        -1.432165
 O        -1.828733         1.053409        -2.423897
 H         0.886263         2.529091        -0.131826
 H        -0.553237         3.104306        -0.873913
 H        -0.398142         3.204961         0.774227
 H        -2.406085         0.611900         1.466449
 H        -3.006864         1.391997        -0.329283
 H        -2.644662        -1.246495        -0.882895
 H        -1.314162        -1.507892         1.362984
 H        -0.249680        -1.968454         0.021401
 H        -0.069163        -0.062229        -1.858975
 H        -1.412192         1.815278        -2.925088
