19
Iteration:  1385
 C        -0.390811         2.637461         0.051145
 C        -0.870039         1.168384         0.056884
 C        -2.271914         0.812363         0.688268
 C        -2.021853        -0.482876        -0.288668
 C        -0.786749        -1.192159         0.363473
 C         0.124306         0.077628         0.535736
 O         1.349359         0.100118         0.767031
 C        -1.196997         0.521195        -1.253596
 O        -2.021026         1.217280        -2.117945
 H         0.607016         2.641995         0.416693
 H        -0.289351         3.049005        -0.956352
 H        -1.014852         3.269839         0.731256
 H        -2.343241         0.693638         1.769504
 H        -3.017284         1.457502         0.222538
 H        -2.818945        -1.056781        -0.779758
 H        -1.004396        -1.706967         1.360605
 H        -0.306044        -2.004380        -0.375622
 H        -0.347753        -0.018771        -1.646140
 H        -2.217519         2.099423        -1.653157
