19
Iteration:  2583
 C        -0.148499         2.692059        -0.083483
 C        -0.742658         1.213491         0.004706
 C        -2.192060         0.694096         0.454801
 C        -1.892259        -0.485804        -0.477154
 C        -0.713284        -1.190967         0.332938
 C        -0.034379         0.147087         0.774816
 O         0.719349         0.260527         1.701866
 C        -1.160683         0.485964        -1.416143
 O        -1.816116         1.084205        -2.479196
 H        -0.028645         2.953786        -1.145792
 H        -0.843454         3.467794         0.345367
 H         0.855047         2.750877         0.318548
 H        -2.602813         0.576668         1.353532
 H        -2.747778         1.449387        -0.010474
 H        -2.637123        -1.185654        -1.019834
 H        -1.143601        -1.604991         1.290110
 H        -0.232955        -2.050399        -0.170843
 H        -0.232753         0.223280        -1.974710
 H        -2.708829         1.243912        -2.295152
