19
Iteration:  3160
 C        -0.173508         2.528396        -0.069678
 C        -0.710770         1.200048        -0.157328
 C        -2.174963         0.668887         0.304447
 C        -1.840708        -0.547687        -0.554533
 C        -0.746133        -1.103093         0.419637
 C        -0.132426         0.160190         0.815558
 O         0.563342         0.400206         1.827332
 C        -1.015808         0.425588        -1.450644
 O        -1.835288         1.165836        -2.343139
 H         0.692211         2.418747        -0.734747
 H        -0.884055         3.272605        -0.496146
 H         0.176326         2.887605         0.823158
 H        -2.406462         0.298436         1.347609
 H        -2.974545         1.204319        -0.110365
 H        -2.609582        -1.260514        -0.855391
 H        -1.154749        -1.770954         1.226935
 H         0.053980        -1.614350        -0.202216
 H        -0.155451        -0.017192        -2.064788
 H        -1.346475         1.557438        -3.022017
