19
Iteration:  3565charge 0 multiplicity 1
 C        -0.398069         2.680237         0.046669
 C        -0.983180         1.220928        -0.001688
 C        -2.472249         0.764496         0.187582
 C        -1.872722        -0.539259        -0.488032
 C        -1.002444        -1.195345         0.633831
 C        -0.082182         0.117298         0.878892
 O         1.015787         0.286863         1.325810
 C        -0.889613         0.383065        -1.340333
 O        -1.457602         1.091828        -2.450678
 H         0.677373         2.774366        -0.287816
 H        -1.052512         3.507363        -0.402651
 H        -0.429178         2.973151         1.228721
 H        -2.744077         0.910359         1.199747
 H        -3.137017         1.322432        -0.520253
 H        -2.544299        -1.224857        -1.099899
 H        -1.592706        -1.415589         1.540425
 H        -0.411532        -2.011836         0.269743
 H         0.230577         0.053800        -1.543938
 H        -1.984725         1.880047        -2.066622
