19
Iteration:  3035charge 0 multiplicity 1
 C        -0.397254         2.632313         0.190932
 C        -0.966681         1.244095         0.128984
 C        -2.488207         0.784076         0.158530
 C        -1.951512        -0.500027        -0.437182
 C        -0.937916        -1.024265         0.525600
 C        -0.102484         0.216467         0.828043
 O         1.010509         0.268246         1.241441
 C        -0.949291         0.285621        -1.323347
 O        -1.348769         1.005688        -2.435157
 H         0.519678         2.708874        -0.362001
 H        -0.995337         3.277454        -0.394117
 H        -0.257174         3.059305         1.195261
 H        -3.223796         0.768552         1.002168
 H        -2.914373         1.688546        -0.481732
 H        -2.647472        -1.319083        -0.844341
 H        -1.470038        -1.485263         1.366899
 H        -0.286797        -1.759141         0.059291
 H         0.043192        -0.018281        -1.625899
 H        -2.292915         1.046153        -2.347895
