19
Iteration:  3158charge 0 multiplicity 1
 C        -0.173954         2.520455        -0.076101
 C        -0.721922         1.189553        -0.165419
 C        -2.167614         0.663031         0.310236
 C        -1.848995        -0.551585        -0.545580
 C        -0.742256        -1.105370         0.416658
 C        -0.133420         0.171561         0.809415
 O         0.556464         0.391880         1.817781
 C        -0.979617         0.413191        -1.437835
 O        -1.845721         1.170697        -2.346413
 H         0.673984         2.490898        -0.757325
 H        -0.904760         3.250123        -0.465357
 H         0.173198         2.877874         0.810987
 H        -2.463151         0.419284         1.381480
 H        -3.017991         1.222684        -0.115502
 H        -2.615341        -1.187093        -0.876172
 H        -1.095489        -1.735622         1.239265
 H         0.047174        -1.624973        -0.173475
 H        -0.157543         0.052415        -1.953135
 H        -1.290322         1.640800        -3.021832
