19
Iteration:  2752charge 0 multiplicity 1
 C        -0.392380         2.771008         0.199260
 C        -0.903966         1.270010         0.126275
 C        -2.411271         0.734699         0.240469
 C        -1.846916        -0.503636        -0.481914
 C        -0.998799        -1.075509         0.591101
 C        -0.077193         0.205585         0.768984
 O         1.038999         0.175693         1.230953
 C        -0.958021         0.361234        -1.385640
 O        -1.528780         1.021035        -2.481275
 H        -0.994950         3.394880         0.939217
 H         0.597807         2.600309         0.634131
 H        -0.468099         3.356454        -0.799741
 H        -2.642306         0.585873         1.252875
 H        -3.072493         1.327410        -0.330379
 H        -2.495639        -1.306400        -0.936574
 H        -1.651023        -1.424225         1.448494
 H        -0.413081        -2.002746         0.447019
 H        -0.173770        -0.313146        -1.903991
 H        -2.246720         1.483404        -2.129690
