19
Iteration:   677
 C        -0.040377         2.547569        -0.216091
 C        -0.710096         1.234812        -0.203442
 C        -1.803111         0.801259         0.838874
 C        -1.928498        -0.423493        -0.089813
 C        -0.685964        -1.165107         0.111086
 C         0.266937        -0.040822         0.245325
 O         1.289593        -0.000460         0.877269
 C        -1.601192         0.586676        -1.242667
 O        -2.665276         1.388097        -1.632527
 H        -0.411417         3.219451        -0.978276
 H        -0.293870         3.022288         0.695623
 H         1.091585         2.462200        -0.272365
 H        -1.421160         0.713358         1.962796
 H        -2.683461         1.478537         0.604144
 H        -2.854262        -1.014695        -0.136489
 H        -0.749399        -1.813954         0.908290
 H        -0.380316        -1.689104        -0.821624
 H        -1.230092         0.114987        -2.227504
 H        -3.509435         0.829652        -1.640039
