19
Iteration:  2244charge 0 multiplicity 1
 C        -0.174171         2.659881         0.124792
 C        -0.732132         1.228366        -0.117257
 C        -2.202192         0.752840         0.482739
 C        -1.901361        -0.555931        -0.497442
 C        -0.799469        -1.081393         0.415831
 C        -0.052728         0.170019         0.682819
 O         0.917587         0.272064         1.385234
 C        -1.186849         0.358877        -1.457857
 O        -1.946292         1.066028        -2.308200
 H        -0.396178         3.425896        -0.648392
 H        -0.488230         2.984957         1.084498
 H         0.890622         2.544678         0.111688
 H        -1.838006         0.539362         1.619771
 H        -3.059765         1.514781         0.423964
 H        -2.742586        -1.225815        -0.826403
 H        -1.251224        -1.558004         1.255282
 H        -0.218534        -1.854683        -0.028442
 H        -0.467281        -0.215650        -2.136344
 H        -1.865013         2.051793        -2.367229
