19
Iteration:   504charge 0 multiplicity 1
 C        -0.109341         2.498863         0.232252
 C        -0.790432         1.135908         0.152810
 C        -2.078682         0.883404         0.909322
 C        -2.043217        -0.430004         0.043124
 C        -0.727797        -1.176844         0.467791
 C         0.185311         0.011667         0.206375
 O         1.359821         0.108008        -0.142004
 C        -1.440571         0.503330        -1.145233
 O        -2.364015         1.375954        -1.816481
 H        -0.901230         3.266202         0.103761
 H         0.339237         2.695985         1.183775
 H         0.747867         2.755889        -0.597061
 H        -2.058879         0.727884         2.008097
 H        -2.822238         1.657190         0.720949
 H        -2.858366        -1.170063        -0.049700
 H        -0.645130        -1.608981         1.440778
 H        -0.417345        -2.021012        -0.288970
 H        -0.792065         0.011197        -1.912940
 H        -2.943459         0.844662        -2.373486
