19
Iteration:  2620
 C        -0.278107         2.609490        -0.087430
 C        -0.727894         1.189062        -0.081327
 C        -2.211772         0.811077         0.271552
 C        -1.892108        -0.552122        -0.482383
 C        -0.737446        -1.160977         0.396745
 C        -0.158848         0.161242         0.833241
 O         0.777956         0.268317         1.577856
 C        -1.070283         0.346786        -1.389096
 O        -1.745642         1.179313        -2.315952
 H        -0.749745         3.091862        -0.967366
 H        -0.546623         3.128528         0.840653
 H         0.878939         2.615929        -0.037061
 H        -2.531557         0.624260         1.367168
 H        -2.803059         1.591656        -0.254365
 H        -2.721564        -1.250935        -0.748414
 H        -1.108792        -1.675714         1.273732
 H         0.130879        -1.590901        -0.116991
 H        -0.079144        -0.056705        -1.854453
 H        -2.545756         1.517064        -1.895624
