19
Iteration:  3840charge 0 multiplicity 1
 C        -0.323405         2.623116         0.091316
 C        -0.880779         1.239176         0.007452
 C        -2.382188         0.773244         0.218166
 C        -1.856910        -0.498149        -0.505901
 C        -0.968849        -1.124914         0.632743
 C        -0.215214         0.161464         0.834501
 O         0.897526         0.275246         1.315254
 C        -0.934679         0.366411        -1.345879
 O        -1.522829         1.102256        -2.374833
 H         0.190791         2.900380        -0.782951
 H        -1.098623         3.297902         0.195138
 H         0.350592         2.795707         0.968319
 H        -2.958406         0.622688         1.259621
 H        -3.037271         1.397561        -0.422450
 H        -2.422300        -1.234958        -1.186127
 H        -1.542004        -1.374429         1.560546
 H        -0.308638        -1.959339         0.319197
 H        -0.021259        -0.136629        -1.699921
 H        -0.878018         1.181240        -3.114701
