19
Iteration:  3215charge 0 multiplicity 1
 C        -0.253966         2.643109         0.042810
 C        -0.807504         1.235080        -0.106811
 C        -2.291128         0.840272         0.288072
 C        -1.820590        -0.535238        -0.559609
 C        -0.762103        -1.121290         0.372132
 C        -0.150416         0.179418         0.787833
 O         0.718813         0.278359         1.656633
 C        -0.936244         0.313844        -1.387967
 O        -1.738499         1.114986        -2.302132
 H         0.814097         2.724901         0.223814
 H        -0.511917         3.211003        -0.872485
 H        -0.772870         3.042194         0.849909
 H        -2.567044         0.811525         1.371963
 H        -3.023495         1.353659        -0.332603
 H        -2.550949        -1.228580        -1.047433
 H        -1.231308        -1.583916         1.288845
 H        -0.042787        -1.875244        -0.065071
 H        -0.082396        -0.100433        -1.823911
 H        -1.931793         0.706589        -3.159543
