19
Iteration:  3509charge 0 multiplicity 1
 C        -0.282566         2.677268         0.083897
 C        -0.777180         1.182222        -0.085359
 C        -2.289396         0.704798         0.254809
 C        -1.902985        -0.457291        -0.484281
 C        -0.858393        -1.168701         0.405116
 C        -0.073656         0.151484         0.847378
 O         0.789335         0.324126         1.655663
 C        -1.000840         0.460365        -1.371793
 O        -1.724977         1.037058        -2.466684
 H         0.739753         2.917231        -0.354290
 H        -1.111347         3.211686        -0.525241
 H        -0.383994         3.038213         1.149253
 H        -2.508386         0.619594         1.307862
 H        -2.934238         1.399205        -0.248915
 H        -2.614978        -1.067834        -0.958022
 H        -1.232894        -1.737243         1.244106
 H        -0.246207        -1.797505        -0.195833
 H         0.012293         0.018524        -1.694293
 H        -1.011466         1.030526        -3.205537
