19
Iteration:   413charge 0 multiplicity 1
 C        -0.191218         2.642921        -0.179169
 C        -0.623965         1.189881        -0.126366
 C        -1.767941         0.716418         0.929225
 C        -2.019247        -0.416175        -0.039382
 C        -0.678668        -1.179015         0.075918
 C         0.248261         0.000327         0.159573
 O         1.395118        -0.075614         0.490935
 C        -1.622155         0.552204        -1.159438
 O        -2.669001         1.402816        -1.427259
 H         0.922292         2.767519        -0.133156
 H        -0.641126         3.021336        -1.164539
 H        -0.688936         3.123158         0.613163
 H        -1.629996         0.567012         2.087818
 H        -2.536135         1.521433         0.767507
 H        -2.872303        -1.027240         0.080065
 H        -0.814263        -1.741189         1.034180
 H        -0.372326        -1.753446        -0.767728
 H        -1.255144         0.102935        -2.058324
 H        -2.351013         2.109656        -2.077130
