19
Iteration:  1881
 C        -0.392076         2.748921         0.134679
 C        -0.886447         1.296086         0.121702
 C        -2.354774         0.818298         0.469463
 C        -1.996334        -0.499141        -0.334872
 C        -0.913743        -1.220238         0.496342
 C        -0.009981         0.026402         0.651395
 O         1.180502         0.223374         0.805361
 C        -1.052452         0.408027        -1.223042
 O        -1.693768         1.162979        -2.198583
 H        -0.894292         3.198777         1.024729
 H         0.655454         2.635006         0.271455
 H        -0.784124         3.098894        -0.787125
 H        -2.663532         0.673393         1.451061
 H        -3.116986         1.356599        -0.043647
 H        -2.757486        -1.220676        -0.676080
 H        -1.150790        -1.680495         1.442294
 H        -0.426513        -1.904454        -0.179122
 H        -0.133348        -0.024301        -1.533901
 H        -1.710169         0.763957        -3.144008
