19
Iteration:  1662
 C        -0.291266         2.756994         0.060931
 C        -0.858284         1.216343        -0.016337
 C        -2.240868         0.715941         0.594694
 C        -2.067083        -0.505752        -0.347042
 C        -0.835841        -1.197542         0.443179
 C         0.024464         0.135635         0.582283
 O         1.215146         0.147439         0.929467
 C        -1.172151         0.423475        -1.237016
 O        -1.905320         1.169732        -2.219927
 H         0.591013         2.655808         0.650142
 H         0.047030         3.201847        -0.883394
 H        -1.036674         3.344910         0.466547
 H        -2.383260         0.516497         1.600154
 H        -3.025926         1.368260         0.247437
 H        -2.862723        -1.114672        -0.820882
 H        -1.076805        -1.671479         1.430530
 H        -0.292808        -1.944840        -0.244481
 H        -0.259100        -0.091938        -1.542093
 H        -1.837968         2.126816        -1.909515
