19
Iteration:  3610charge 0 multiplicity 1
 C        -0.508537         2.706861         0.106897
 C        -0.901556         1.258477         0.019887
 C        -2.442561         0.876694         0.235892
 C        -1.986632        -0.551424        -0.437798
 C        -0.943039        -1.160233         0.519692
 C        -0.109205         0.173630         0.832872
 O         1.020964         0.212993         1.277437
 C        -0.900777         0.408471        -1.278806
 O        -1.346836         1.079259        -2.416185
 H         0.590426         2.581464         0.096719
 H        -0.807569         3.223499        -0.797683
 H        -0.830436         3.333750         1.097825
 H        -2.682025         0.561281         1.199482
 H        -3.289019         1.408247        -0.277817
 H        -2.693190        -1.359874        -0.914128
 H        -1.483402        -1.554365         1.403009
 H        -0.303778        -1.954620         0.114243
 H         0.002482        -0.259513        -1.578325
 H        -2.237500         0.812356        -2.779258
