19
Iteration:  1595
 C        -0.372784         2.628553         0.304100
 C        -0.847111         1.280872         0.090904
 C        -2.290420         0.811530         0.511237
 C        -1.932010        -0.470019        -0.372325
 C        -0.798836        -1.130621         0.522914
 C         0.010739         0.148840         0.590886
 O         1.196650         0.088879         0.657433
 C        -1.121191         0.419990        -1.279506
 O        -1.963928         1.132958        -2.150408
 H        -0.772657         2.918397         1.210566
 H         0.706088         2.776397         0.492347
 H        -0.555144         3.447383        -0.405312
 H        -2.495855         0.686169         1.528933
 H        -2.904459         1.589666         0.044054
 H        -2.767187        -0.994935        -0.911994
 H        -1.257066        -1.252720         1.538455
 H        -0.062435        -1.934946         0.131777
 H        -0.193133        -0.040478        -1.823609
 H        -1.676915         0.993024        -3.022252
