19
Iteration:  2742charge 0 multiplicity 1
 C        -0.398284         2.788361         0.274387
 C        -0.888917         1.332256         0.160961
 C        -2.368581         0.789739         0.296230
 C        -1.877360        -0.564518        -0.545116
 C        -0.990042        -1.122249         0.661661
 C        -0.107477         0.209161         0.805833
 O         1.058755         0.185110         1.203180
 C        -0.964689         0.266750        -1.500294
 O        -1.519538         1.027487        -2.501346
 H        -1.134284         3.503158         0.771228
 H         0.636649         2.973186         0.628924
 H        -0.287405         3.000176        -0.844782
 H        -2.797147         0.449334         1.236254
 H        -3.246134         1.280559        -0.042417
 H        -2.667528        -1.209780        -0.890617
 H        -1.824358        -1.283352         1.335207
 H        -0.375799        -1.960393         0.339871
 H         0.044914        -0.065970        -1.936727
 H        -2.288390         1.524306        -2.349690
