19
Iteration:  4116charge 0 multiplicity 1
 C        -0.417795         2.694599         0.224363
 C        -0.849395         1.258514         0.071161
 C        -2.339788         0.914666         0.159952
 C        -1.914247        -0.491923        -0.535748
 C        -0.973258        -1.113921         0.559023
 C        -0.139297         0.190949         0.867331
 O         0.979530         0.224308         1.282103
 C        -0.968947         0.282427        -1.370614
 O        -1.566600         0.973835        -2.399751
 H         0.632978         2.765951         0.247815
 H        -0.794603         3.210435        -0.647144
 H        -0.734112         3.125940         1.177616
 H        -2.782507         0.877578         1.159640
 H        -3.065207         1.381713        -0.549667
 H        -2.413977        -1.219677        -1.073568
 H        -1.401903        -1.416387         1.499211
 H        -0.393456        -1.990032         0.208202
 H        -0.046416        -0.152870        -1.735371
 H        -0.847786         1.431289        -2.781552
