19
Iteration:  1564
 C        -0.321291         2.676045         0.083697
 C        -0.845347         1.202207         0.061494
 C        -2.313929         0.697953         0.512566
 C        -1.945681        -0.486228        -0.304894
 C        -0.833125        -1.247159         0.442700
 C         0.132155         0.074322         0.593348
 O         1.333685         0.142562         0.936807
 C        -1.176933         0.526753        -1.327566
 O        -2.057545         1.318073        -2.158455
 H        -1.012478         3.399431         0.610236
 H         0.480500         2.713907         0.874233
 H         0.016519         3.140503        -0.782163
 H        -2.619474         0.552240         1.572432
 H        -3.004623         1.376454        -0.046790
 H        -2.814243        -1.004979        -0.765455
 H        -1.212048        -1.470320         1.479292
 H        -0.337445        -2.164676        -0.080095
 H        -0.323140         0.005347        -1.762763
 H        -2.407120         0.771958        -2.966222
