19
Iteration:  4757charge 0 multiplicity 1
 C        -0.232413         2.627053         0.145350
 C        -0.822040         1.267763         0.026062
 C        -2.455822         0.762295         0.182839
 C        -1.785404        -0.543252        -0.601824
 C        -0.989146        -1.094055         0.632614
 C        -0.132580         0.137643         0.792472
 O         0.925496         0.308534         1.412019
 C        -0.917604         0.439324        -1.358466
 O        -1.705585         1.005269        -2.399569
 H         0.815167         2.447868         0.537587
 H        -0.201417         3.107945        -0.899762
 H        -0.820400         3.224822         0.916802
 H        -3.046726         0.640072         1.282092
 H        -3.061961         1.345898        -0.667202
 H        -2.499969        -1.333256        -1.126051
 H        -1.742776        -1.225337         1.362552
 H        -0.450275        -2.020523         0.491117
 H        -0.006181         0.030041        -1.753452
 H        -0.958749         1.611361        -2.839632
