19
Iteration:   704
 C        -0.103452         2.603123        -0.108336
 C        -0.660940         1.191625        -0.038685
 C        -1.866903         0.771431         0.917107
 C        -2.035229        -0.382883        -0.068690
 C        -0.772435        -1.235523         0.207189
 C         0.210140        -0.020015         0.302806
 O         1.391758         0.071867         0.591439
 C        -1.582882         0.518461        -1.213569
 O        -2.495939         1.393256        -1.797913
 H        -1.023848         3.253456        -0.178403
 H         0.418439         2.979931         0.835367
 H         0.511926         2.706598        -0.971395
 H        -1.695169         0.481027         1.975356
 H        -2.582572         1.580656         0.808114
 H        -2.999036        -0.904997        -0.202988
 H        -0.857946        -1.809710         1.241265
 H        -0.432586        -1.934205        -0.591023
 H        -1.151011        -0.023547        -2.034308
 H        -3.252835         0.891701        -2.233167
