19
Iteration:  3785charge 0 multiplicity 1
 C        -0.253693         2.612677         0.027926
 C        -0.784006         1.204861        -0.119019
 C        -2.209781         0.867780         0.216957
 C        -1.897771        -0.525211        -0.464736
 C        -0.889264        -1.170865         0.415532
 C        -0.152875         0.125458         0.833712
 O         0.734999         0.312219         1.657161
 C        -0.925599         0.403112        -1.383227
 O        -1.736666         1.029976        -2.383044
 H         0.236600         2.974694        -0.850316
 H        -1.085614         3.229703         0.135270
 H         0.463398         2.754102         0.922809
 H        -2.577203         0.896875         1.341826
 H        -2.985057         1.377255        -0.407946
 H        -2.684906        -1.186888        -0.987169
 H        -1.171209        -1.614402         1.389758
 H        -0.147557        -1.808635        -0.120820
 H        -0.010607         0.058384        -1.835896
 H        -1.139551         1.638004        -2.958693
