19
Iteration:  3812
 C        -0.184349         2.593295         0.098698
 C        -0.904375         1.244692         0.023992
 C        -2.413445         0.737485         0.154986
 C        -1.934202        -0.553497        -0.560052
 C        -0.943638        -1.110627         0.545891
 C        -0.103541         0.182643         0.881827
 O         0.921643         0.325007         1.532851
 C        -0.962035         0.367366        -1.397739
 O        -1.672365         1.100007        -2.391617
 H         0.358156         2.784723        -0.899774
 H        -0.923639         3.518391         0.194198
 H         0.561479         2.622378         0.898043
 H        -2.972565         0.617986         0.981291
 H        -3.000164         1.356737        -0.495830
 H        -2.461097        -1.224136        -1.164811
 H        -1.294845        -1.330096         1.556638
 H        -0.309144        -1.898980         0.103849
 H        -0.006672        -0.039473        -1.843281
 H        -1.073301         1.269672        -3.219209
