19
Iteration:  4856
 C        -0.134807         2.592279        -0.135206
 C        -0.725924         1.191014        -0.121062
 C        -2.234624         0.725185         0.292330
 C        -1.846720        -0.522815        -0.565424
 C        -0.816218        -1.155713         0.368426
 C        -0.074042         0.211262         0.822531
 O         0.632289         0.315827         1.785179
 C        -0.958377         0.415310        -1.447503
 O        -1.893369         1.102955        -2.246856
 H         0.017693         2.940932         0.874076
 H         0.829918         2.436789        -0.593568
 H        -0.801338         3.289450        -0.631533
 H        -2.383506         0.410736         1.436371
 H        -3.034784         1.445394        -0.211671
 H        -2.660861        -1.205203        -1.072594
 H        -1.236982        -1.624526         1.209291
 H        -0.028792        -1.720701        -0.129162
 H        -0.097436        -0.003906        -1.977215
 H        -1.428132         1.864778        -2.738638
