19
Iteration:  3326charge 0 multiplicity 1
 C        -0.434898         2.642421         0.218381
 C        -0.925491         1.223827         0.000033
 C        -2.452614         0.691129         0.204655
 C        -1.873957        -0.513227        -0.530107
 C        -0.937793        -1.082317         0.643577
 C        -0.137547         0.220055         0.835499
 O         0.979820         0.245205         1.252577
 C        -0.911238         0.448480        -1.325562
 O        -1.388356         1.039441        -2.485141
 H         0.555531         2.895862        -0.116600
 H        -1.118109         3.256923        -0.276239
 H        -0.553161         3.047798         1.240553
 H        -2.775989         0.620719         1.266070
 H        -3.023691         1.418826        -0.481983
 H        -2.546106        -1.372945        -1.005214
 H        -1.706821        -1.284792         1.459080
 H        -0.340416        -2.026546         0.320309
 H        -0.012008        -0.009956        -1.532649
 H        -2.316348         1.345483        -2.390138
