19
Iteration:  3079
 C        -0.370272         2.701419         0.061575
 C        -0.822110         1.272751         0.003281
 C        -2.323781         0.689640         0.267745
 C        -1.926216        -0.558474        -0.421695
 C        -0.987244        -1.184481         0.560970
 C        -0.094903         0.176040         0.749227
 O         0.858099         0.295761         1.494279
 C        -0.895239         0.474583        -1.377744
 O        -1.502938         1.016501        -2.549208
 H         0.341541         2.990576        -0.681656
 H        -1.107009         3.453712        -0.021162
 H         0.192494         2.652211         1.029034
 H        -2.681141         0.574047         1.349107
 H        -3.171720         1.322100        -0.324034
 H        -2.748738        -1.205473        -0.873875
 H        -1.336434        -1.333324         1.579491
 H        -0.537588        -2.082604         0.147304
 H         0.014785         0.000033        -1.716802
 H        -2.076374         1.783478        -2.403541
