19
Iteration:  3715
 C        -0.129814         2.607882        -0.109553
 C        -0.768731         1.210131        -0.030109
 C        -2.298766         0.727743         0.253577
 C        -1.888319        -0.539837        -0.551145
 C        -0.781360        -1.162121         0.346809
 C        -0.138579         0.182056         0.850886
 O         0.684937         0.370864         1.735588
 C        -1.004968         0.339879        -1.410568
 O        -1.764225         1.087791        -2.298728
 H         0.883137         2.607629        -0.542221
 H        -0.734773         3.323790        -0.742213
 H        -0.033378         3.033425         0.783542
 H        -2.484226         0.811873         1.381184
 H        -3.082888         1.391927        -0.240588
 H        -2.595873        -1.188497        -0.932061
 H        -1.270843        -1.744760         1.135998
 H        -0.233143        -1.834170        -0.337883
 H        -0.122929        -0.166563        -1.875918
 H        -1.415513         2.048014        -2.472201
