19
Iteration:  1435charge 0 multiplicity 1
 C        -0.089400         2.524458        -0.050218
 C        -0.721633         1.125805        -0.105390
 C        -2.057198         0.777346         0.665211
 C        -1.894823        -0.508170        -0.393285
 C        -0.674438        -1.166930         0.232309
 C         0.137861         0.102411         0.502880
 O         1.044726         0.220653         1.280396
 C        -1.321238         0.513331        -1.389293
 O        -2.416926         1.277499        -1.990987
 H         0.967321         2.532199        -0.566918
 H        -0.729863         3.386237        -0.434275
 H         0.033606         2.685497         1.010105
 H        -2.061110         0.402028         1.714232
 H        -2.892665         1.437959         0.355494
 H        -2.730136        -1.133050        -0.695461
 H        -0.773159        -1.798703         1.075969
 H        -0.261304        -1.778090        -0.511842
 H        -0.507926         0.113840        -2.063198
 H        -2.129017         1.777788        -2.724298
