19
Iteration:  2076
 C        -0.226502         2.543848         0.017236
 C        -0.817978         1.165455        -0.027355
 C        -2.233656         0.702311         0.422279
 C        -1.922158        -0.447610        -0.489828
 C        -0.758639        -1.104613         0.362588
 C         0.076342         0.192157         0.722282
 O         1.046847         0.228582         1.493357
 C        -1.147361         0.474874        -1.410975
 O        -2.020542         1.220859        -2.314622
 H         0.653998         2.282475        -0.436316
 H        -0.815340         3.315512        -0.448929
 H         0.066191         2.699476         1.046047
 H        -2.272895         0.436513         1.560034
 H        -3.035216         1.424551         0.163596
 H        -2.710585        -1.164126        -0.763507
 H        -1.192474        -1.598898         1.201658
 H        -0.254475        -1.908082        -0.127410
 H        -0.238521         0.243976        -1.991606
 H        -2.735863         0.782757        -2.883896
