19
Iteration:  1305charge 0 multiplicity 1
 C        -0.266216         2.718306         0.331479
 C        -0.851059         1.250721         0.146683
 C        -2.222528         0.875968         0.524867
 C        -2.011414        -0.488152        -0.261998
 C        -0.811243        -1.196466         0.475793
 C         0.091434         0.093447         0.515403
 O         1.318400         0.151968         0.527819
 C        -1.276302         0.385456        -1.255484
 O        -2.066963         1.155490        -2.131004
 H        -0.167503         2.823082         1.481094
 H         0.738277         2.698072        -0.110493
 H        -0.862598         3.522495        -0.021824
 H        -2.254155         0.749141         1.622922
 H        -3.101217         1.475945         0.353144
 H        -2.824448        -1.091638        -0.562565
 H        -1.188418        -1.545262         1.480011
 H        -0.132152        -2.002069        -0.011966
 H        -0.456326        -0.122947        -1.869228
 H        -2.078377         0.916230        -3.122004
