19
Iteration:  2442charge 0 multiplicity 1
 C        -0.486635         2.677174         0.182270
 C        -0.904577         1.220333         0.072072
 C        -2.353662         0.836986         0.321766
 C        -2.023238        -0.508985        -0.383769
 C        -0.858654        -1.062817         0.520852
 C        -0.046977         0.172224         0.664057
 O         1.080551         0.158291         1.086889
 C        -1.040023         0.302763        -1.319291
 O        -1.470426         1.127158        -2.334386
 H         0.268133         2.850435         0.964094
 H        -0.038201         3.095883        -0.758944
 H        -1.285211         3.329400         0.498375
 H        -2.771073         0.855444         1.370850
 H        -3.130641         1.300058        -0.232320
 H        -2.848530        -1.092022        -0.909653
 H        -1.217907        -1.431699         1.477119
 H        -0.192464        -1.833735         0.264955
 H        -0.065659        -0.184357        -1.582652
 H        -2.372434         0.902089        -2.508430
