19
Iteration:  3487charge 0 multiplicity 1
 C        -0.273645         2.661542         0.040396
 C        -0.816185         1.219096        -0.060290
 C        -2.243121         0.838054         0.351072
 C        -1.790638        -0.551444        -0.546971
 C        -0.740868        -1.182847         0.373031
 C        -0.127662         0.182062         0.789671
 O         0.666414         0.295190         1.725270
 C        -1.015866         0.382793        -1.449558
 O        -1.729394         1.125019        -2.419174
 H         0.776180         2.439975        -0.284152
 H        -0.773238         3.325125        -0.764263
 H        -0.287541         3.123483         1.056639
 H        -2.541488         0.553590         1.337465
 H        -2.979208         1.398770        -0.179798
 H        -2.496598        -1.204137        -0.950858
 H        -1.160674        -1.606394         1.262920
 H        -0.032325        -1.851171        -0.060142
 H         0.003963        -0.037143        -1.788420
 H        -1.888763         0.563972        -3.153132
