19
Iteration:  3969
 C        -0.166072         2.598567         0.011217
 C        -0.780313         1.231484        -0.107997
 C        -2.359685         0.829416         0.194326
 C        -1.834005        -0.588170        -0.532410
 C        -0.836089        -1.173893         0.424249
 C        -0.056890         0.139349         0.799553
 O         0.711474         0.353593         1.741274
 C        -0.983127         0.389135        -1.404783
 O        -1.818480         1.111439        -2.359555
 H         0.964596         2.380212        -0.166612
 H        -0.443553         3.355136        -0.762616
 H        -0.257364         3.075131         1.090851
 H        -2.520296         0.645346         1.214109
 H        -3.080059         1.334431        -0.393629
 H        -2.812832        -1.140822        -0.861504
 H        -1.172267        -1.778596         1.354630
 H        -0.189276        -1.978029        -0.035655
 H        -0.036040         0.097188        -1.933443
 H        -1.036095         1.474634        -2.881432
