19
Iteration:  4820
 C        -0.326712         2.662169        -0.149847
 C        -0.703192         1.212289        -0.059623
 C        -2.182759         0.791256         0.391337
 C        -1.914558        -0.533054        -0.395589
 C        -0.822324        -1.248413         0.300669
 C         0.019825         0.208763         0.803515
 O         0.634256         0.244191         1.794709
 C        -1.057309         0.371769        -1.409652
 O        -1.732531         1.121574        -2.460031
 H         0.412608         2.846222         0.595140
 H         0.190161         2.881373        -1.049057
 H        -1.035543         3.376108        -0.136044
 H        -2.489114         0.886876         1.427423
 H        -2.884847         1.424963        -0.149400
 H        -2.907327        -1.023776        -0.762913
 H        -1.098453        -1.911644         1.141571
 H        -0.054961        -1.819123        -0.212785
 H        -0.098112         0.032338        -1.862562
 H        -1.103551         1.883565        -2.771724
