19
Iteration:  2636charge 0 multiplicity 1
 C        -0.265822         2.638396        -0.025944
 C        -0.802189         1.219565        -0.036009
 C        -2.266065         0.728653         0.279029
 C        -1.916437        -0.600380        -0.424358
 C        -0.847040        -1.178305         0.470169
 C        -0.013960         0.111897         0.701197
 O         0.824225         0.324216         1.555488
 C        -1.039785         0.400994        -1.403491
 O        -1.672995         1.196176        -2.353555
 H        -0.877308         3.266634        -0.690076
 H        -0.341666         3.133904         0.961367
 H         0.690687         2.800390        -0.420827
 H        -2.540499         0.879570         1.370780
 H        -3.099952         1.154736        -0.366437
 H        -2.618568        -1.238427        -0.969663
 H        -1.182596        -1.606796         1.449133
 H        -0.399623        -2.091588         0.038637
 H        -0.254483        -0.077603        -1.927731
 H        -2.448194         1.617058        -2.069117
