19
Iteration:  4157
 C        -0.528233         2.715763         0.168819
 C        -0.919164         1.291434         0.043043
 C        -2.414851         0.895965         0.272855
 C        -1.894785        -0.472010        -0.485567
 C        -0.979752        -1.082021         0.599412
 C        -0.107854         0.114057         0.800499
 O         1.014902         0.118925         1.269105
 C        -0.951273         0.352161        -1.296648
 O        -1.427366         0.956636        -2.519909
 H         0.423064         2.975647        -0.407579
 H        -1.348325         3.324286        -0.326488
 H        -0.418900         3.228465         1.281196
 H        -2.528049         0.822235         1.306169
 H        -2.976356         1.608208        -0.140089
 H        -2.669980        -1.078350        -0.989302
 H        -1.745348        -1.365001         1.343479
 H        -0.297631        -1.966429         0.425705
 H        -0.029030        -0.213015        -1.562364
 H        -0.726015         1.669968        -2.824585
