19
Iteration:   909
 C        -0.102520         2.642272        -0.466449
 C        -0.669920         1.228356        -0.205696
 C        -1.875810         0.740727         0.762932
 C        -1.924103        -0.499203        -0.230460
 C        -0.694759        -1.331397         0.050638
 C         0.203633         0.019524         0.455850
 O         1.184069         0.116833         1.172531
 C        -1.557916         0.474110        -1.246226
 O        -2.479919         1.485979        -1.561325
 H        -0.692006         2.973288        -1.325200
 H        -0.219792         3.364401         0.399287
 H         1.056460         2.481467        -0.929856
 H        -1.717648         0.588226         1.860980
 H        -2.725696         1.361245         0.530246
 H        -2.853175        -1.053345        -0.229143
 H        -0.771175        -1.943190         0.908143
 H        -0.214641        -1.908095        -0.803211
 H        -0.996737         0.006484        -2.110224
 H        -3.155489         1.212384        -2.178379
