19
Iteration:  2491charge 0 multiplicity 1
 C        -0.384043         2.689168         0.077697
 C        -0.877069         1.227171         0.071071
 C        -2.319735         0.704512         0.348321
 C        -1.902269        -0.507335        -0.490446
 C        -0.867478        -1.042368         0.462303
 C        -0.098034         0.184344         0.755563
 O         1.005586         0.193159         1.244624
 C        -1.029263         0.367875        -1.348522
 O        -1.601360         1.084787        -2.372417
 H         0.708462         2.777919         0.217259
 H        -0.589840         3.136335        -0.875087
 H        -0.704823         3.352479         0.897770
 H        -2.565916         0.409972         1.444779
 H        -3.131305         1.502633         0.182808
 H        -2.570853        -1.217690        -0.918082
 H        -1.348988        -1.322808         1.421545
 H        -0.527539        -2.072057         0.169352
 H        -0.099058        -0.117675        -1.657159
 H        -2.366537         1.632017        -2.031495
