19
Iteration:  3369
 C        -0.428539         2.600723         0.175761
 C        -0.775637         1.180114        -0.022528
 C        -2.345730         0.856386         0.240609
 C        -1.930337        -0.465099        -0.506195
 C        -0.825654        -1.109271         0.430063
 C        -0.110327         0.104002         0.782657
 O         0.877965         0.349158         1.530090
 C        -1.009312         0.385624        -1.319960
 O        -1.529199         0.969720        -2.513089
 H         0.577960         2.819289        -0.066487
 H        -1.129709         3.132454        -0.404966
 H        -0.668932         2.855504         1.194154
 H        -2.745074         0.652028         1.252732
 H        -3.071514         1.412630        -0.426787
 H        -2.716419        -1.094791        -1.113446
 H        -1.145987        -1.594207         1.389768
 H        -0.032719        -1.761927        -0.116975
 H        -0.070585        -0.055469        -1.552894
 H        -1.936930         1.910624        -2.462864
