19
Iteration:  4686charge 0 multiplicity 1
 C        -0.534062         2.717917         0.066730
 C        -0.938479         1.255574         0.093524
 C        -2.400755         0.829938         0.387082
 C        -1.973677        -0.396702        -0.425567
 C        -1.008237        -1.072198         0.535334
 C        -0.070112         0.198234         0.776432
 O         0.964742         0.150574         1.334556
 C        -0.901798         0.277809        -1.392160
 O        -1.362972         0.989379        -2.512181
 H         0.243010         2.827510        -0.648174
 H        -1.380037         3.332919        -0.168535
 H        -0.257830         3.046415         1.064515
 H        -2.765216         0.687587         1.507851
 H        -3.080462         1.551666        -0.084902
 H        -2.654095        -1.029337        -0.918794
 H        -1.436793        -1.544758         1.471543
 H        -0.304590        -1.853406         0.085535
 H         0.039159        -0.304600        -1.523923
 H        -0.573776         1.326786        -3.113206
