19
Iteration:   126
 C        -0.187126         2.573885        -0.076717
 C        -0.671139         1.143399         0.001892
 C        -1.731776         0.599659         1.062965
 C        -2.037612        -0.465424        -0.045929
 C        -0.664091        -1.225814        -0.083596
 C         0.283573        -0.005322         0.062888
 O         1.488156        -0.007462         0.266411
 C        -1.711154         0.597446        -1.121201
 O        -2.702229         1.616399        -1.344249
 H        -0.965153         3.283380        -0.478064
 H         0.450802         3.148087         0.674193
 H         0.413805         2.539105        -1.024341
 H        -1.214463         0.225177         2.015417
 H        -2.481139         1.398483         1.302497
 H        -2.945247        -1.128697        -0.153558
 H        -0.452902        -1.770082         0.872931
 H        -0.353477        -1.788144        -0.979659
 H        -1.282880         0.354228        -2.166873
 H        -3.590395         1.398087        -1.101970
