19
Iteration:  1755charge 0 multiplicity 1
 C        -0.000361         2.522828        -0.121389
 C        -0.748085         1.196221        -0.161302
 C        -2.084771         0.784100         0.615335
 C        -1.836944        -0.452413        -0.355808
 C        -0.630393        -1.194233         0.141459
 C         0.079683         0.050670         0.586094
 O         0.841680         0.296107         1.542891
 C        -1.258713         0.479849        -1.396781
 O        -2.336989         1.185734        -2.117912
 H         0.228697         2.861900        -1.141848
 H        -0.706805         3.155688         0.404402
 H         0.760395         2.301420         0.686819
 H        -2.040311         0.427659         1.750075
 H        -2.953802         1.472776         0.363469
 H        -2.718998        -1.019658        -0.637082
 H        -0.818864        -1.852539         0.980241
 H        -0.229482        -1.781915        -0.666927
 H        -0.494627         0.336563        -2.184163
 H        -1.839846         1.759051        -2.704824
