19
Iteration:  2467
 C        -0.482455         2.658618         0.112460
 C        -0.873349         1.185985         0.124296
 C        -2.344636         0.833473         0.318187
 C        -1.980329        -0.488250        -0.370301
 C        -0.964315        -1.215187         0.525175
 C        -0.006009         0.116948         0.792975
 O         1.157308         0.260751         1.151708
 C        -1.033527         0.373578        -1.322430
 O        -1.535010         1.143322        -2.433527
 H         0.419783         2.950012         0.602060
 H        -0.379450         2.963205        -0.923752
 H        -1.164711         3.345335         0.654933
 H        -3.042380         0.915998         1.316232
 H        -3.025029         1.492267        -0.359099
 H        -2.695870        -1.005434        -0.990001
 H        -1.358837        -1.908070         1.270183
 H        -0.463113        -2.014098        -0.063173
 H        -0.031996         0.015740        -1.497670
 H        -2.452939         1.209270        -2.340105
