19
Iteration:  1877
 C        -0.398032         2.724727         0.130713
 C        -0.898222         1.292731         0.123796
 C        -2.330643         0.806914         0.450441
 C        -1.990010        -0.511848        -0.304450
 C        -0.888359        -1.233203         0.481465
 C        -0.000004         0.063607         0.614995
 O         1.149172         0.202389         0.813988
 C        -1.096666         0.439082        -1.198202
 O        -1.678985         1.167968        -2.189830
 H        -0.929804         3.169405         0.913538
 H         0.730910         2.712454         0.309423
 H        -0.688161         3.079058        -0.912054
 H        -2.702900         0.737598         1.596005
 H        -3.118111         1.316765        -0.193718
 H        -2.835352        -1.138820        -0.641269
 H        -1.170661        -1.642892         1.447279
 H        -0.316131        -1.957715        -0.097465
 H        -0.116820         0.043145        -1.633082
 H        -1.618245         0.788064        -3.037405
