19
Iteration:   255charge 0 multiplicity 1
 C        -0.271832         2.547188         0.013807
 C        -0.755699         1.190548         0.132653
 C        -1.879442         0.729299         1.089010
 C        -2.036051        -0.410998         0.016640
 C        -0.737734        -1.206728         0.235687
 C         0.278111         0.031541         0.164847
 O         1.504160        -0.060666        -0.132847
 C        -1.567506         0.576447        -1.070251
 O        -2.475483         1.515659        -1.594811
 H         0.609011         2.650820        -0.644207
 H        -1.027304         3.221395        -0.263627
 H         0.036796         2.901822         1.038701
 H        -1.599304         0.547843         2.152385
 H        -2.719591         1.423458         0.868905
 H        -3.010563        -1.057963        -0.028914
 H        -0.651693        -1.748052         1.123178
 H        -0.521621        -1.999367        -0.535748
 H        -1.028898         0.191230        -1.893358
 H        -3.372238         1.118519        -1.861367
