19
Iteration:   717
 C        -0.204737         2.538702        -0.088691
 C        -0.750320         1.164543        -0.020767
 C        -1.932468         0.784739         0.936563
 C        -2.070878        -0.428066        -0.051661
 C        -0.793182        -1.121194         0.301490
 C         0.227026         0.033021         0.315351
 O         1.420251         0.034517         0.447432
 C        -1.503229         0.495079        -1.200209
 O        -2.400480         1.431585        -1.813429
 H        -0.931427         3.424337         0.133807
 H         0.722847         2.482631         0.616783
 H         0.226706         2.807233        -1.032717
 H        -1.603961         0.629658         1.889949
 H        -2.840548         1.353907         0.869024
 H        -2.967174        -1.047592        -0.081334
 H        -0.908982        -1.830408         1.224356
 H        -0.482415        -1.773841        -0.518557
 H        -0.775679         0.025496        -1.835780
 H        -2.896639         0.888434        -2.399328
