19
Iteration:  4681charge 0 multiplicity 1
 C        -0.521997         2.741640         0.032987
 C        -0.910103         1.268004         0.108535
 C        -2.387873         0.812655         0.396366
 C        -1.970293        -0.418740        -0.400813
 C        -0.973020        -1.058800         0.517951
 C        -0.131348         0.194108         0.795283
 O         0.964533         0.127840         1.351816
 C        -0.921883         0.270559        -1.361897
 O        -1.374790         1.023588        -2.563630
 H         0.309880         2.796505        -0.742801
 H        -1.450520         3.373990        -0.134527
 H        -0.256753         3.020527         1.113918
 H        -2.672856         0.702014         1.375158
 H        -3.175372         1.499672         0.000289
 H        -2.664820        -1.116476        -0.983459
 H        -1.410489        -1.505998         1.392203
 H        -0.281963        -1.836722         0.201294
 H         0.054758        -0.223718        -1.591593
 H        -0.557921         1.162489        -2.976391
