19
Iteration:  4384
 C        -0.381672         2.709169         0.082957
 C        -0.882218         1.253721         0.087771
 C        -2.367225         0.841901         0.202214
 C        -1.916966        -0.514523        -0.487784
 C        -0.931850        -1.178541         0.533657
 C        -0.103931         0.183753         0.887909
 O         0.958343         0.187512         1.433194
 C        -0.987343         0.383826        -1.348411
 O        -1.564169         0.983878        -2.527320
 H         0.491574         2.749315        -0.615810
 H        -1.143598         3.454153        -0.176852
 H        -0.118527         2.964204         1.038450
 H        -2.929468         1.113526         1.144925
 H        -2.800987         1.417238        -0.567154
 H        -2.673840        -1.107571        -1.018575
 H        -1.337938        -1.379712         1.497084
 H        -0.189828        -1.863410         0.202962
 H        -0.090083        -0.078563        -1.685915
 H        -1.132187         1.836759        -2.482843
