19
Iteration:  1208
 C        -0.192468         2.499770        -0.364629
 C        -0.682507         1.150333        -0.141252
 C        -1.922707         0.770291         0.707321
 C        -1.882441        -0.461534        -0.277061
 C        -0.591014        -1.238528         0.090710
 C         0.198393        -0.014103         0.509282
 O         1.020646         0.171113         1.402533
 C        -1.435076         0.523415        -1.382507
 O        -2.401312         1.472264        -1.829937
 H        -1.142901         3.143043        -0.477838
 H         0.323583         2.871528         0.556131
 H         0.496031         2.501855        -1.179081
 H        -1.706585         0.728610         1.816734
 H        -2.871062         1.301953         0.498594
 H        -2.740177        -1.077593        -0.233794
 H        -0.676243        -1.953996         0.984862
 H        -0.212937        -1.778990        -0.931357
 H        -0.647970         0.231705        -2.168179
 H        -3.118714         1.004043        -2.384071
