19
Iteration:  2987
 C        -0.514716         2.622255         0.093709
 C        -0.782692         1.225221         0.055679
 C        -2.312043         0.766393         0.307134
 C        -1.878932        -0.496176        -0.554070
 C        -0.991980        -1.016459         0.568843
 C        -0.149950         0.182961         0.823042
 O         0.950065         0.203953         1.364541
 C        -0.920205         0.374327        -1.369916
 O        -1.466990         1.030781        -2.501600
 H         0.512249         2.966147         0.440480
 H        -0.500911         3.053347        -0.970978
 H        -1.258261         3.059070         0.824599
 H        -2.576842         0.640604         1.435679
 H        -3.238650         1.312647        -0.096017
 H        -2.543548        -1.187089        -1.066521
 H        -1.489931        -1.283039         1.523438
 H        -0.259333        -1.794042         0.307407
 H        -0.091599        -0.165254        -1.816007
 H        -2.135704         1.745735        -2.160463
