19
Iteration:  1349charge 0 multiplicity 1
 C        -0.423706         2.760793         0.231384
 C        -0.887973         1.236614         0.166590
 C        -2.235731         0.753579         0.707935
 C        -2.025944        -0.526608        -0.314352
 C        -0.840720        -1.145042         0.588465
 C         0.110155         0.095556         0.546698
 O         1.339088         0.019150         0.452726
 C        -1.197362         0.399201        -1.274205
 O        -1.862616         1.258193        -2.221634
 H         0.394746         2.969854         1.044328
 H        -0.139660         3.103039        -0.786202
 H        -1.250536         3.387954         0.409406
 H        -2.631094         0.711548         1.737864
 H        -2.973255         1.460089         0.271121
 H        -2.831170        -1.089558        -0.714109
 H        -1.078408        -1.279797         1.665780
 H        -0.383311        -2.116584         0.174911
 H        -0.309358         0.291667        -1.960773
 H        -2.862393         1.239637        -2.067195
