19
Iteration:  4095
 C        -0.259814         2.648083         0.160200
 C        -0.874079         1.173729        -0.020756
 C        -2.405260         0.752454         0.138377
 C        -1.903102        -0.522039        -0.462146
 C        -0.930294        -1.089194         0.579539
 C        -0.120202         0.192810         0.815685
 O         0.918266         0.270850         1.399891
 C        -0.960342         0.418706        -1.354552
 O        -1.651606         1.055729        -2.419227
 H         0.718818         2.451573         0.418288
 H        -0.195380         3.213871        -0.757922
 H        -0.600372         3.193528         0.942153
 H        -2.844772         0.658939         1.180283
 H        -3.185542         1.311412        -0.514043
 H        -2.563073        -1.216046        -0.901263
 H        -1.515544        -1.504620         1.372270
 H        -0.163675        -1.814462         0.296613
 H         0.070271         0.031280        -1.593025
 H        -1.028980         1.565418        -3.079232
