19
Iteration:  1784
 C        -0.048271         2.664567        -0.047537
 C        -0.679009         1.208138        -0.085928
 C        -2.130197         0.796455         0.466684
 C        -1.944861        -0.557931        -0.423865
 C        -0.670820        -1.113926         0.208050
 C         0.090415         0.104162         0.716087
 O         1.010306         0.173632         1.496303
 C        -1.380915         0.426327        -1.403840
 O        -2.273879         1.221312        -2.124350
 H        -0.441716         3.322951        -0.917864
 H        -0.414610         3.032922         0.895955
 H         0.998703         2.493065        -0.032715
 H        -2.289514         0.664469         1.504932
 H        -2.836592         1.506442         0.095894
 H        -2.762836        -1.242140        -0.670357
 H        -0.976999        -1.858256         1.031400
 H         0.029371        -1.607234        -0.568072
 H        -0.516483         0.050277        -2.048811
 H        -1.896341         1.000374        -3.052766
