19
Iteration:   884
 C        -0.119857         2.485059        -0.337297
 C        -0.655114         1.114420        -0.101454
 C        -1.925480         0.711065         0.745549
 C        -2.029104        -0.456529        -0.171462
 C        -0.623520        -1.179831         0.231686
 C         0.208815         0.061350         0.385990
 O         1.256531         0.096400         1.010434
 C        -1.507306         0.546581        -1.268716
 O        -2.606287         1.480342        -1.686719
 H        -0.077557         2.564290        -1.414463
 H        -0.684464         3.310450         0.100591
 H         1.018976         2.424237        -0.071236
 H        -1.725150         0.416992         1.708315
 H        -2.584729         1.539836         0.650772
 H        -2.889205        -1.138952        -0.411243
 H        -0.430969        -1.818600         1.188273
 H        -0.282134        -1.778373        -0.717840
 H        -0.877003         0.233610        -2.081941
 H        -2.542468         1.651127        -2.599095
