19
Iteration:  4562
 C        -0.131665         2.668690        -0.043918
 C        -0.688298         1.215331        -0.103073
 C        -2.269972         0.847137         0.313402
 C        -1.867288        -0.441794        -0.511701
 C        -0.783580        -1.195152         0.312404
 C        -0.152954         0.133209         0.818649
 O         0.644987         0.321145         1.768937
 C        -1.010215         0.414279        -1.438683
 O        -1.808184         0.928943        -2.346932
 H         0.918000         2.647390         0.395674
 H        -0.101347         3.040922        -1.101088
 H        -0.742802         3.349737         0.626112
 H        -2.389689         0.786655         1.471134
 H        -3.233779         1.372812        -0.078657
 H        -2.772222        -0.945097        -0.960197
 H        -1.147388        -2.059752         0.926744
 H        -0.026301        -1.767318        -0.366480
 H        -0.023993         0.008986        -1.860967
 H        -1.508805         1.870525        -2.625254
