19
Iteration:  3388
 C        -0.370393         2.667583         0.075203
 C        -0.898494         1.225682        -0.055308
 C        -2.303730         0.778407         0.285428
 C        -1.887157        -0.522199        -0.462300
 C        -0.818966        -1.185056         0.376844
 C        -0.093453         0.176323         0.822621
 O         0.826906         0.317468         1.679340
 C        -0.943870         0.385816        -1.440207
 O        -1.611656         1.022901        -2.505451
 H         0.731863         2.616158        -0.147052
 H        -0.898267         3.351959        -0.694930
 H        -0.520223         3.042136         1.079173
 H        -2.618489         0.811287         1.330737
 H        -2.955086         1.445901        -0.217532
 H        -2.610849        -1.170704        -0.887423
 H        -1.176562        -1.876777         1.096712
 H        -0.265467        -1.792845        -0.293749
 H         0.104069        -0.077194        -1.773859
 H        -1.916030         1.893947        -2.167636
