19
Iteration:  4863charge 0 multiplicity 1
 C        -0.111696         2.566389        -0.099800
 C        -0.742200         1.236571        -0.157072
 C        -2.224426         0.708151         0.254629
 C        -1.809137        -0.552637        -0.560889
 C        -0.804182        -1.119790         0.366752
 C        -0.102330         0.181405         0.843489
 O         0.658783         0.329694         1.764427
 C        -1.025467         0.434124        -1.399462
 O        -1.899895         1.106184        -2.233627
 H        -0.098949         2.959481         0.920057
 H         0.928845         2.525332        -0.448188
 H        -0.610820         3.313227        -0.703781
 H        -2.572289         0.683724         1.204160
 H        -2.837494         1.279918        -0.357651
 H        -2.458198        -1.345137        -1.001638
 H        -1.287297        -1.713802         1.193356
 H        -0.184965        -1.891874        -0.135567
 H        -0.243534        -0.087002        -2.028721
 H        -1.434182         1.866029        -2.757078
