19
Iteration:  2913charge 0 multiplicity 1
 C        -0.130075         2.612613        -0.009842
 C        -0.818521         1.215832        -0.070094
 C        -2.347656         0.626584         0.358080
 C        -1.868268        -0.485387        -0.519268
 C        -0.823550        -1.212335         0.400528
 C        -0.071061         0.218617         0.812747
 O         0.752374         0.394962         1.725524
 C        -1.011819         0.421487        -1.404829
 O        -1.696354         1.120511        -2.519794
 H         0.742283         2.776000         0.564891
 H         0.217155         2.807951        -0.972336
 H        -0.844532         3.362443         0.358291
 H        -2.218540         0.239871         1.377629
 H        -3.281787         1.216076         0.074983
 H        -2.598425        -1.259989        -1.045517
 H        -1.432066        -1.607305         1.229640
 H        -0.427532        -1.964331        -0.262834
 H        -0.144073         0.012790        -1.881037
 H        -2.530832         1.419772        -2.208096
