19
Iteration:  2292
 C        -0.186269         2.529465        -0.198905
 C        -0.746726         1.205664        -0.032883
 C        -2.220016         0.861423         0.404217
 C        -1.865758        -0.524965        -0.522103
 C        -0.629663        -1.145410         0.288584
 C        -0.017685         0.114634         0.752837
 O         0.792417         0.241246         1.652328
 C        -1.135062         0.367401        -1.383869
 O        -2.090927         1.181325        -2.161060
 H        -0.807596         3.408471        -0.182974
 H         0.571915         2.843756         0.597678
 H         0.364246         2.707192        -1.151456
 H        -2.377803         0.723094         1.476589
 H        -2.863091         1.491102        -0.144830
 H        -2.674099        -1.124894        -0.867068
 H        -0.699807        -1.953846         1.093760
 H         0.104400        -1.619298        -0.494878
 H        -0.160164         0.047603        -1.940193
 H        -1.563350         1.826070        -2.591877
