19
Iteration:  4645charge 0 multiplicity 1
 C        -0.418476         2.651016        -0.041121
 C        -0.842775         1.240361         0.041857
 C        -2.408116         0.832372         0.272747
 C        -1.909033        -0.484207        -0.480058
 C        -0.930698        -1.154461         0.476663
 C        -0.065918         0.112991         0.819982
 O         0.881743         0.260301         1.517911
 C        -0.877786         0.345575        -1.296523
 O        -1.577083         1.107221        -2.427288
 H         0.475670         2.795405        -0.666433
 H        -1.120492         3.363509        -0.417248
 H        -0.050243         2.948259         0.901236
 H        -2.682461         0.656705         1.331190
 H        -3.116152         1.331928        -0.294249
 H        -2.652959        -1.085420        -1.025411
 H        -1.391274        -1.474043         1.392977
 H        -0.445127        -1.930408        -0.028184
 H         0.046221        -0.057571        -1.643630
 H        -0.978078         1.060860        -3.183205
