19
Iteration:  1954charge 0 multiplicity 1
 C        -0.292545         2.629496         0.082749
 C        -0.757080         1.155604         0.004888
 C        -2.188828         0.757039         0.368174
 C        -1.943461        -0.496294        -0.429848
 C        -0.833212        -1.080493         0.370269
 C         0.013167         0.097822         0.723369
 O         1.077984         0.256905         1.262415
 C        -1.163042         0.393990        -1.339387
 O        -1.958204         1.220433        -2.201696
 H         0.408941         2.584891         0.829885
 H         0.206553         2.787463        -0.911501
 H        -1.219590         3.201304         0.318972
 H        -2.359990         0.707095         1.534645
 H        -2.767734         1.584960        -0.083367
 H        -2.685714        -1.207694        -0.811964
 H        -1.243327        -1.607518         1.240569
 H        -0.175756        -1.709094        -0.230678
 H        -0.332877        -0.024921        -2.022196
 H        -2.240184         0.580115        -2.863780
