19
Iteration:  3080charge 0 multiplicity 1
 C        -0.367620         2.697778         0.056451
 C        -0.834294         1.276117         0.005259
 C        -2.319380         0.685195         0.267661
 C        -1.928677        -0.554812        -0.425757
 C        -0.981549        -1.175618         0.562104
 C        -0.091821         0.168946         0.747357
 O         0.857622         0.291080         1.508007
 C        -0.896175         0.472286        -1.379039
 O        -1.510528         1.018047        -2.553608
 H         0.339746         2.976145        -0.682644
 H        -1.104237         3.467404         0.007680
 H         0.170940         2.676392         0.983823
 H        -2.649731         0.621587         1.338762
 H        -3.168591         1.285064        -0.286964
 H        -2.736222        -1.157469        -0.886518
 H        -1.337689        -1.338010         1.577843
 H        -0.509839        -2.081243         0.152650
 H         0.046624         0.000221        -1.769172
 H        -2.036120         1.773315        -2.388577
