19
Iteration:  3048
 C        -0.449047         2.574820         0.157818
 C        -0.959827         1.223997         0.144539
 C        -2.390728         0.861850         0.170786
 C        -1.970320        -0.473228        -0.512431
 C        -0.936657        -1.062991         0.545380
 C        -0.167491         0.239707         0.850524
 O         1.009497         0.320487         1.276240
 C        -0.905620         0.264063        -1.379284
 O        -1.380313         1.024578        -2.429966
 H         0.482542         2.525206        -0.383663
 H        -1.068881         3.405750        -0.112469
 H        -0.088299         2.622466         1.136463
 H        -2.702034         0.676861         1.172050
 H        -3.102457         1.374475        -0.486296
 H        -2.734169        -1.149293        -0.892093
 H        -1.286488        -1.454123         1.512346
 H        -0.309434        -1.847814         0.058488
 H         0.003245        -0.410064        -1.566856
 H        -2.365013         1.214464        -2.382297
