19
Iteration:  4070charge 0 multiplicity 1
 C        -0.152871         2.603408        -0.010346
 C        -0.884819         1.144046         0.026285
 C        -2.331293         0.767458         0.248623
 C        -1.858145        -0.505348        -0.564895
 C        -0.907348        -1.171020         0.453094
 C        -0.123182         0.183358         0.795829
 O         0.817117         0.367550         1.575235
 C        -0.933035         0.377254        -1.359711
 O        -1.747797         1.092028        -2.379959
 H         0.812334         2.584172         0.533778
 H        -0.017257         3.086697        -0.974535
 H        -0.793534         3.154168         0.782901
 H        -2.671362         0.573844         1.239620
 H        -2.977719         1.396570        -0.241207
 H        -2.643572        -1.066972        -1.093371
 H        -1.565865        -1.510527         1.276554
 H        -0.179217        -2.017451         0.267654
 H        -0.012006        -0.072062        -1.656920
 H        -1.254380         1.741322        -2.989793
