19
Iteration:  4150charge 0 multiplicity 1
 C        -0.549157         2.719764         0.183046
 C        -0.861153         1.241942         0.011162
 C        -2.397949         0.913862         0.253135
 C        -1.919823        -0.459193        -0.441911
 C        -1.026124        -1.117773         0.575278
 C        -0.072689         0.139543         0.794543
 O         1.029042         0.131338         1.271054
 C        -0.957656         0.388438        -1.310134
 O        -1.425912         0.932634        -2.492324
 H         0.357512         2.935092        -0.282546
 H        -1.313991         3.317436        -0.307448
 H        -0.561973         3.072741         1.223327
 H        -2.616679         0.822986         1.366295
 H        -3.190467         1.609463        -0.315249
 H        -2.502663        -1.000353        -1.136459
 H        -1.593934        -1.252849         1.501011
 H        -0.504040        -2.019237         0.265618
 H         0.022893        -0.056519        -1.400826
 H        -0.796150         1.627308        -2.831969
