19
Iteration:  1018
 C        -0.179070         2.625642         0.050923
 C        -0.749819         1.161916         0.024980
 C        -2.168560         0.771966         0.738469
 C        -2.028480        -0.405752        -0.114909
 C        -0.848923        -1.218492         0.534883
 C         0.165244         0.038817         0.488267
 O         1.387208         0.108597         0.380177
 C        -1.359808         0.526914        -1.203921
 O        -2.280155         1.239165        -2.057419
 H         0.231646         2.792003         1.007024
 H         0.698748         2.838521        -0.560267
 H        -1.043881         3.377248        -0.145714
 H        -2.232279         0.724146         1.806690
 H        -2.978299         1.324626         0.301365
 H        -2.799342        -1.109313        -0.406135
 H        -0.987841        -1.413519         1.607941
 H        -0.326530        -2.119968        -0.063620
 H        -0.697866        -0.127033        -1.770357
 H        -2.019406         2.144212        -1.862184
