19
Iteration:  1903charge 0 multiplicity 1
 C        -0.416789         2.622247         0.211343
 C        -0.852105         1.245114         0.123121
 C        -2.319516         0.754583         0.458965
 C        -1.984844        -0.450069        -0.435727
 C        -0.927682        -1.112299         0.533980
 C         0.011883         0.208650         0.706457
 O         1.249607         0.169470         0.870998
 C        -1.112689         0.416004        -1.296237
 O        -1.733845         1.141034        -2.293330
 H        -0.422209         2.785346         1.313001
 H         0.569638         2.658117        -0.183868
 H        -1.181047         3.153155        -0.314411
 H        -2.532402         0.583216         1.489785
 H        -3.030639         1.410180         0.006177
 H        -2.848851        -1.021417        -0.822753
 H        -1.492235        -1.346943         1.415633
 H        -0.267144        -1.878194         0.200714
 H        -0.251819        -0.039920        -1.728146
 H        -2.034312         0.535555        -2.924370
