19
Iteration:  4389charge 0 multiplicity 1
 C        -0.378561         2.737216         0.098080
 C        -0.867204         1.253493         0.107241
 C        -2.373764         0.827684         0.215425
 C        -1.929741        -0.468572        -0.516465
 C        -0.938783        -1.157996         0.551768
 C        -0.130425         0.167144         0.863172
 O         0.980755         0.185017         1.419353
 C        -1.001425         0.335245        -1.349255
 O        -1.547937         0.973060        -2.551619
 H         0.445601         2.919271        -0.574757
 H        -1.292399         3.272542        -0.234536
 H        -0.097559         3.029863         1.219979
 H        -2.768147         1.138347         1.249731
 H        -2.933698         1.437515        -0.589028
 H        -2.680706        -1.118996        -0.972442
 H        -1.406201        -1.434693         1.556134
 H        -0.136109        -1.886578         0.183461
 H         0.056729        -0.096906        -1.506829
 H        -1.145511         1.879285        -2.528907
