19
Iteration:  3621charge 0 multiplicity 1
 C        -0.486062         2.705789         0.094401
 C        -0.908111         1.265909         0.127390
 C        -2.331924         0.816352         0.204788
 C        -1.953945        -0.480547        -0.411394
 C        -0.930375        -1.187928         0.506793
 C        -0.120060         0.091928         0.788665
 O         0.978805         0.232202         1.318594
 C        -0.992576         0.400334        -1.299823
 O        -1.392274         1.080186        -2.462849
 H         0.584333         2.926578         0.295079
 H        -0.735493         3.228562        -0.823670
 H        -1.079092         3.267991         1.022676
 H        -2.657019         1.029265         1.194968
 H        -2.979326         1.561960        -0.338374
 H        -2.763164        -1.160535        -0.880589
 H        -1.309362        -1.655674         1.431971
 H        -0.192182        -1.835205         0.030345
 H        -0.032603        -0.187294        -1.591087
 H        -2.004894         0.496175        -2.835023
