19
Iteration:  3439
 C        -0.237477         2.560297        -0.131585
 C        -0.777232         1.162872        -0.004876
 C        -2.215697         0.708046         0.210773
 C        -1.801586        -0.529722        -0.594166
 C        -0.730785        -1.195704         0.374765
 C        -0.112489         0.115159         0.907528
 O         0.643313         0.418053         1.792189
 C        -0.974575         0.431865        -1.476495
 O        -1.738735         1.217477        -2.342087
 H         0.867685         2.462550        -0.220886
 H        -0.756970         3.042533        -1.007527
 H        -0.561721         3.081750         0.782143
 H        -2.303307         0.604185         1.326471
 H        -3.167861         1.139059        -0.257813
 H        -2.573353        -1.148884        -0.988617
 H        -1.327665        -1.734212         1.160797
 H         0.030802        -1.884097        -0.067677
 H        -0.239916        -0.123174        -1.993811
 H        -2.716883         1.380922        -2.023557
