19
Iteration:  3606
 C        -0.488489         2.701926         0.114031
 C        -0.924131         1.248213         0.001182
 C        -2.458643         0.850815         0.261796
 C        -1.977218        -0.547742        -0.471201
 C        -0.954011        -1.126921         0.536626
 C        -0.092055         0.187808         0.848148
 O         1.011008         0.210275         1.262232
 C        -0.897193         0.362930        -1.287081
 O        -1.339642         1.090732        -2.412194
 H         0.625955         2.639775         0.078117
 H        -0.885829         3.257930        -0.811078
 H        -0.775290         3.216454         0.986184
 H        -2.774491         0.534431         1.305993
 H        -3.233511         1.356692        -0.318499
 H        -2.608221        -1.205218        -0.921483
 H        -1.445189        -1.528272         1.426456
 H        -0.392369        -1.957935         0.115278
 H         0.040830        -0.097466        -1.498500
 H        -2.248828         0.859247        -2.678370
