19
Iteration:  3769
 C        -0.277354         2.693849        -0.038045
 C        -0.643348         1.224068        -0.100801
 C        -2.277427         0.769945         0.300168
 C        -1.936250        -0.428492        -0.533291
 C        -0.855051        -1.160536         0.434057
 C        -0.037640         0.168460         0.802843
 O         0.682156         0.281952         1.782165
 C        -0.993954         0.319671        -1.462351
 O        -1.738270         0.993185        -2.433587
 H         0.420670         3.089110        -0.825970
 H        -1.121405         3.460113         0.189323
 H         0.307240         2.755791         0.806878
 H        -2.404037         0.606424         1.340736
 H        -2.861726         1.645423        -0.014991
 H        -2.711038        -0.958106        -0.966455
 H        -1.271583        -1.888601         1.146148
 H        -0.189747        -1.728963        -0.275353
 H        -0.149978        -0.350561        -1.863402
 H        -1.351701         1.928855        -2.605705
