19
Iteration:  3507charge 0 multiplicity 1
 C        -0.268665         2.671644         0.074109
 C        -0.773715         1.188827        -0.066464
 C        -2.280700         0.691292         0.255856
 C        -1.915190        -0.479251        -0.491350
 C        -0.859556        -1.155484         0.406177
 C        -0.085145         0.141989         0.830255
 O         0.782792         0.327308         1.667468
 C        -0.984469         0.468872        -1.364965
 O        -1.732036         1.044465        -2.477025
 H         0.765455         2.970600        -0.329165
 H        -1.129725         3.226189        -0.532307
 H        -0.399958         3.012115         1.097880
 H        -2.486853         0.708949         1.347280
 H        -2.926207         1.392608        -0.215384
 H        -2.582053        -1.049483        -0.948794
 H        -1.197422        -1.758735         1.226015
 H        -0.208471        -1.783033        -0.189823
 H        -0.039216         0.064440        -1.724947
 H        -1.080553         0.945854        -3.161643
