19
Iteration:  1421charge 0 multiplicity 1
 C        -0.147860         2.574332         0.002024
 C        -0.765953         1.230120        -0.113395
 C        -2.081007         0.691963         0.645396
 C        -1.972609        -0.520211        -0.307467
 C        -0.699923        -1.208118         0.255946
 C         0.091900         0.095276         0.576505
 O         1.155263         0.215477         1.145580
 C        -1.349579         0.449736        -1.396738
 O        -2.305677         1.291513        -2.076552
 H         0.901179         2.449844        -0.155004
 H        -0.536507         3.342800        -0.645917
 H        -0.219516         2.989578         1.059645
 H        -1.901298         0.601881         1.719565
 H        -2.924527         1.383115         0.538892
 H        -2.856269        -1.180280        -0.550725
 H        -0.939845        -1.840557         1.129735
 H        -0.031029        -1.768294        -0.390000
 H        -0.709607         0.034337        -2.154466
 H        -1.762892         2.130228        -2.277610
