19
Iteration:   421
 C        -0.191507         2.637651        -0.129780
 C        -0.630632         1.225096        -0.066846
 C        -1.820592         0.731753         0.953716
 C        -1.997462        -0.382422        -0.048604
 C        -0.725010        -1.212126         0.118997
 C         0.250483         0.025820         0.186346
 O         1.451652        -0.088251         0.419905
 C        -1.635887         0.509260        -1.193539
 O        -2.648055         1.413129        -1.462427
 H         0.811822         2.913949        -0.413321
 H        -0.796838         3.090427        -0.970037
 H        -0.503827         3.221548         0.682678
 H        -1.620720         0.450688         2.042985
 H        -2.684262         1.433249         0.818181
 H        -2.995834        -0.911681        -0.051317
 H        -0.591761        -1.839865         1.056336
 H        -0.479645        -1.878392        -0.681216
 H        -1.153672         0.042589        -2.042111
 H        -2.314029         1.866254        -2.280349
