19
Iteration:  3893
 C        -0.507390         2.704090         0.097889
 C        -0.896228         1.295681         0.074993
 C        -2.344567         0.857810         0.229007
 C        -2.003622        -0.489334        -0.461342
 C        -0.939004        -1.084223         0.592704
 C        -0.139811         0.190096         0.867782
 O         0.978620         0.101326         1.344205
 C        -0.917507         0.372097        -1.369148
 O        -1.444745         0.990039        -2.513494
 H         0.080341         2.956859        -0.774771
 H        -1.329817         3.352864         0.173384
 H         0.119817         2.991236         0.966757
 H        -2.614356         0.786498         1.324718
 H        -2.998254         1.488338        -0.385691
 H        -2.666299        -1.317615        -0.895327
 H        -1.458930        -1.597122         1.475752
 H        -0.347676        -1.939880         0.176517
 H         0.090518        -0.132298        -1.638245
 H        -0.909516         1.798422        -2.770450
