19
Iteration:  1642
 C        -0.393154         2.564007         0.237727
 C        -0.878100         1.167698         0.135769
 C        -2.282760         0.829631         0.595820
 C        -1.993618        -0.435625        -0.288178
 C        -0.837703        -1.111245         0.473257
 C         0.018134         0.082803         0.595495
 O         1.250512         0.184586         0.746581
 C        -1.152033         0.430680        -1.293517
 O        -1.860607         1.132288        -2.324675
 H         0.398763         2.888276         1.006142
 H         0.153959         2.822332        -0.696226
 H        -1.076920         3.336177         0.264989
 H        -2.474004         0.754011         1.738897
 H        -3.135510         1.327817         0.091259
 H        -2.768808        -1.107150        -0.647776
 H        -1.195920        -1.393601         1.515913
 H        -0.367099        -1.956833        -0.147013
 H        -0.289734        -0.224027        -1.680921
 H        -1.721145         2.153222        -2.361739
