19
Iteration:  3302
 C        -0.497594         2.682564         0.145478
 C        -0.998711         1.233094         0.147037
 C        -2.437646         0.802777         0.130123
 C        -1.913180        -0.501213        -0.548962
 C        -0.943936        -1.164546         0.636235
 C        -0.110120         0.117514         0.855310
 O         1.029023         0.267060         1.203378
 C        -0.874661         0.380746        -1.278171
 O        -1.375358         1.090718        -2.405918
 H         0.523367         2.722646        -0.218668
 H        -1.124971         3.209247        -0.574883
 H        -0.544893         3.299068         0.968425
 H        -2.882376         0.602810         1.110611
 H        -3.013216         1.459023        -0.543561
 H        -2.576022        -1.145754        -1.169234
 H        -1.491839        -1.447486         1.553424
 H        -0.362517        -1.998622         0.197718
 H         0.156784         0.049612        -1.394172
 H        -2.289649         0.926477        -2.406538
