19
Iteration:  3911charge 0 multiplicity 1
 C        -0.390636         2.725741         0.101668
 C        -0.825156         1.246871         0.044306
 C        -2.372776         0.770110         0.288604
 C        -1.884124        -0.472352        -0.512032
 C        -1.006311        -1.118170         0.540135
 C        -0.106264         0.096531         0.745553
 O         0.896617         0.234549         1.397847
 C        -0.915417         0.387370        -1.240109
 O        -1.525840         0.975506        -2.522749
 H         0.339162         3.009838        -0.762802
 H        -1.326967         3.476309         0.069796
 H         0.180341         2.933652         1.008704
 H        -2.848662         0.691301         1.219739
 H        -3.042503         1.294820        -0.421967
 H        -2.675192        -0.929861        -0.994122
 H        -1.604193        -1.258034         1.433137
 H        -0.389682        -1.976933         0.282417
 H        -0.004616        -0.052732        -1.573644
 H        -1.021534         1.818703        -2.553416
