19
Iteration:  1722
 C        -0.092535         2.632325        -0.124405
 C        -0.704711         1.212340        -0.124812
 C        -2.084662         0.727048         0.519289
 C        -1.900451        -0.489159        -0.376142
 C        -0.689917        -1.213992         0.242772
 C         0.068418         0.078568         0.636870
 O         0.951351         0.218011         1.441416
 C        -1.268158         0.388713        -1.415153
 O        -2.262399         1.246868        -2.110251
 H         0.899188         2.866911        -0.633956
 H        -0.810275         3.335376        -0.566854
 H         0.242102         3.107622         0.873945
 H        -2.221918         0.410719         1.664743
 H        -2.955099         1.383648         0.211239
 H        -2.751108        -1.154213        -0.520668
 H        -0.956311        -1.831513         1.106433
 H        -0.268868        -1.879316        -0.487409
 H        -0.540842         0.131598        -2.229327
 H        -2.082319         2.169195        -1.684285
