19
Iteration:  4470charge 0 multiplicity 1
 C        -0.311137         2.581523         0.089801
 C        -0.898314         1.229213         0.009176
 C        -2.473290         0.833124         0.110369
 C        -1.869165        -0.527709        -0.526295
 C        -0.908985        -1.096327         0.538840
 C        -0.162053         0.156116         0.823986
 O         0.971844         0.260866         1.398532
 C        -0.987822         0.398663        -1.299878
 O        -1.598622         1.092319        -2.321834
 H         0.828121         2.455909         0.396224
 H        -0.345580         3.078825        -0.956291
 H        -0.719087         3.319948         0.839524
 H        -2.785048         0.791475         1.090356
 H        -3.074411         1.472250        -0.481232
 H        -2.475421        -1.360640        -0.877936
 H        -1.260689        -1.387417         1.527075
 H        -0.241436        -1.907947         0.312279
 H        -0.001537        -0.090525        -1.645391
 H        -1.045785         1.096050        -3.049970
