19
Iteration:  1934
 C        -0.335489         2.704783         0.199097
 C        -0.799458         1.282130        -0.062093
 C        -2.362789         0.801837         0.388445
 C        -1.948426        -0.534570        -0.326178
 C        -0.831969        -1.276652         0.549362
 C         0.076086         0.134889         0.628724
 O         1.151875         0.180982         1.147491
 C        -1.096903         0.409154        -1.438780
 O        -1.870034         1.244229        -2.299191
 H         0.143243         2.697996         1.170643
 H         0.390366         3.037748        -0.594170
 H        -1.270250         3.305110         0.286404
 H        -2.471242         0.844280         1.597608
 H        -3.202997         1.345846        -0.083873
 H        -2.800380        -1.124237        -0.721460
 H        -1.167659        -1.560936         1.522661
 H        -0.306438        -2.097414         0.181803
 H        -0.240470        -0.146866        -1.946744
 H        -2.460194         0.655006        -2.927554
