19
Iteration:  2168charge 0 multiplicity 1
 C        -0.445049         2.671312         0.101241
 C        -0.924101         1.242509         0.013447
 C        -2.344742         0.781918         0.493870
 C        -1.892219        -0.561202        -0.373415
 C        -0.901808        -1.152256         0.606428
 C        -0.054745         0.094456         0.669381
 O         1.133049         0.125631         0.917434
 C        -1.028700         0.434172        -1.245823
 O        -1.674561         1.226660        -2.300877
 H        -0.129756         3.043108        -0.913672
 H        -1.293541         3.236983         0.387985
 H         0.269188         2.951691         0.830663
 H        -2.574582         0.664248         1.623232
 H        -3.159386         1.460789         0.098063
 H        -2.684956        -1.130630        -0.901558
 H        -1.523812        -1.219755         1.513032
 H        -0.408281        -2.115939         0.428791
 H        -0.004791         0.232576        -1.711031
 H        -1.195642         1.118003        -3.082856
