19
Iteration:  2087
 C        -0.223025         2.562855         0.052844
 C        -0.790254         1.213651         0.027240
 C        -2.272832         0.713466         0.469552
 C        -1.900514        -0.455514        -0.479363
 C        -0.792720        -1.125004         0.373247
 C         0.018651         0.077492         0.779706
 O         1.077846         0.263083         1.367014
 C        -1.181344         0.502049        -1.389990
 O        -1.963162         1.209514        -2.354814
 H         0.550151         2.678832        -0.648093
 H        -0.897201         3.338981        -0.268511
 H         0.174915         2.869500         1.012844
 H        -2.644962         0.393945         1.506483
 H        -2.961269         1.441590        -0.004884
 H        -2.641768        -1.112384        -0.970595
 H        -1.270812        -1.592724         1.205111
 H        -0.126443        -1.806759        -0.120302
 H        -0.377839        -0.069900        -1.872183
 H        -2.407216         0.451479        -2.700946
