19
Iteration:  1532charge 0 multiplicity 1
 C        -0.279979         2.578512        -0.097144
 C        -0.804762         1.162918        -0.040162
 C        -2.094176         0.671615         0.615874
 C        -1.950957        -0.496054        -0.299418
 C        -0.745169        -1.186243         0.246040
 C         0.046163         0.147133         0.584932
 O         1.093938         0.193585         1.161912
 C        -1.220502         0.440198        -1.371507
 O        -2.051736         1.404608        -2.011646
 H        -1.140647         3.228485        -0.389430
 H         0.142191         2.643186         0.929646
 H         0.524410         2.677385        -0.756673
 H        -2.155500         0.457239         1.723554
 H        -2.937844         1.360215         0.333509
 H        -2.857391        -1.077454        -0.558956
 H        -0.812915        -1.884364         1.080230
 H        -0.151953        -1.806551        -0.484085
 H        -0.485844        -0.029560        -2.019512
 H        -2.680510         1.067010        -2.591810
