19
Iteration:  4657
 C        -0.411559         2.750442        -0.024985
 C        -0.909025         1.254682        -0.002356
 C        -2.351015         0.735718         0.331168
 C        -1.956359        -0.488060        -0.449198
 C        -0.970209        -1.166077         0.536563
 C        -0.107638         0.158958         0.794236
 O         0.955830         0.178775         1.508154
 C        -0.998242         0.468727        -1.345423
 O        -1.458190         1.055734        -2.474658
 H         0.364919         2.754808        -0.834948
 H        -1.289991         3.346904        -0.307377
 H        -0.135774         3.137678         0.934038
 H        -2.777282         0.712958         1.296547
 H        -2.959533         1.408251        -0.200851
 H        -2.696644        -1.156267        -0.982467
 H        -1.390716        -1.704417         1.352776
 H        -0.269296        -1.836969         0.155275
 H        -0.050798        -0.012548        -1.553037
 H        -0.779158         1.035596        -3.139732
