19
Iteration:  2283
 C        -0.176348         2.498969        -0.138232
 C        -0.792873         1.145281        -0.062782
 C        -2.195878         0.881801         0.374920
 C        -1.863582        -0.492341        -0.422151
 C        -0.645075        -1.166002         0.289029
 C         0.036928         0.056207         0.719540
 O         0.796960         0.275510         1.632910
 C        -1.114088         0.511746        -1.374564
 O        -2.099029         1.138842        -2.207394
 H        -1.029916         3.175523        -0.317085
 H         0.462269         2.798844         0.736100
 H         0.502604         2.502188        -1.062221
 H        -2.413525         0.885361         1.345231
 H        -2.923601         1.485374        -0.138550
 H        -2.411568        -1.247356        -0.973519
 H        -0.941239        -1.814680         1.161562
 H         0.077865        -1.690012        -0.419021
 H        -0.265864         0.101978        -1.963145
 H        -1.704817         1.955427        -2.458978
