19
Iteration:  3742charge 0 multiplicity 1
 C        -0.263666         2.583541        -0.140877
 C        -0.760754         1.232920        -0.061411
 C        -2.177514         0.783710         0.367012
 C        -1.854080        -0.516885        -0.445245
 C        -0.753033        -1.198771         0.427436
 C        -0.075172         0.170695         0.787762
 O         0.591409         0.253840         1.788898
 C        -1.021204         0.460418        -1.430141
 O        -1.745617         1.067101        -2.517008
 H         0.578679         2.675032        -0.827269
 H        -0.972572         3.364292        -0.292738
 H         0.277311         2.875410         0.924620
 H        -2.341873         0.955199         1.456660
 H        -2.825465         1.509053        -0.128025
 H        -2.752717        -1.153393        -0.838322
 H        -1.175379        -1.739498         1.286850
 H        -0.192502        -1.911218        -0.221303
 H        -0.102014         0.023132        -1.794421
 H        -1.647211         2.084473        -2.632451
