19
Iteration:   676
 C        -0.035570         2.537847        -0.217520
 C        -0.713201         1.237135        -0.214300
 C        -1.800606         0.797769         0.836764
 C        -1.917907        -0.417502        -0.087592
 C        -0.682113        -1.159295         0.104488
 C         0.260469        -0.041774         0.250352
 O         1.287524        -0.002816         0.884684
 C        -1.609796         0.589982        -1.247283
 O        -2.667277         1.385440        -1.621632
 H        -0.387297         3.216187        -1.032765
 H        -0.313418         3.050093         0.700867
 H         1.071180         2.462924        -0.249607
 H        -1.453895         0.699752         1.913460
 H        -2.653931         1.483156         0.603787
 H        -2.828063        -1.011613        -0.158072
 H        -0.749995        -1.822675         0.897132
 H        -0.353590        -1.654497        -0.806800
 H        -1.238631         0.095856        -2.215994
 H        -3.512204         0.844186        -1.629298
