19
Iteration:    89charge 0 multiplicity 1
 C        -0.072641         2.521668        -0.247849
 C        -0.677270         1.150541        -0.105950
 C        -1.646817         0.590715         1.030940
 C        -1.988999        -0.545181        -0.101782
 C        -0.590245        -1.246168        -0.182515
 C         0.287351        -0.023406         0.053810
 O         1.398919         0.065915         0.493066
 C        -1.770486         0.651801        -1.120143
 O        -2.873569         1.623725        -1.214119
 H        -0.300162         2.667255        -1.299281
 H        -0.520281         3.282391         0.288143
 H         0.997795         2.391580         0.023948
 H        -1.107546         0.276387         1.926265
 H        -2.391746         1.337669         1.356772
 H        -2.936702        -1.082243        -0.016806
 H        -0.511036        -2.081860         0.426945
 H        -0.305177        -1.701268        -1.149610
 H        -1.519702         0.426956        -2.131227
 H        -2.791018         2.266130        -0.482213
