19
Iteration:  1971
 C        -0.203562         2.582772        -0.085956
 C        -0.841782         1.195981        -0.039639
 C        -2.244555         0.787659         0.516091
 C        -1.914087        -0.465968        -0.438773
 C        -0.727082        -1.212844         0.292747
 C         0.049165         0.098591         0.656041
 O         0.966314         0.250285         1.428961
 C        -1.112116         0.454533        -1.352947
 O        -1.999341         1.220014        -2.140091
 H         0.794261         2.779952         0.523327
 H         0.052365         2.822997        -1.119896
 H        -1.014690         3.282855         0.168103
 H        -2.426726         0.512121         1.508623
 H        -3.064185         1.349615         0.061761
 H        -2.755578        -1.021835        -0.869479
 H        -0.971371        -1.641927         1.295567
 H        -0.156325        -1.827046        -0.463282
 H        -0.262303         0.129210        -1.942870
 H        -2.217015         0.818302        -3.010511
