19
Iteration:  2486
 C        -0.391618         2.698353         0.083149
 C        -0.872343         1.234765         0.148512
 C        -2.319955         0.721808         0.344925
 C        -1.922576        -0.497643        -0.524212
 C        -0.906570        -1.110279         0.462359
 C        -0.089164         0.176362         0.762029
 O         1.033780         0.215429         1.222029
 C        -1.025065         0.376615        -1.332367
 O        -1.583198         1.081117        -2.381781
 H         0.682709         2.796258         0.276334
 H        -0.577869         3.096864        -0.957614
 H        -0.853066         3.376660         0.827173
 H        -2.552199         0.496662         1.403159
 H        -3.042243         1.457455         0.081174
 H        -2.725863        -1.254456        -0.794809
 H        -1.332008        -1.268928         1.470089
 H        -0.401770        -2.016924         0.169455
 H        -0.187797        -0.146354        -1.863056
 H        -2.353451         1.527319        -2.068103
