19
Iteration:  1801charge 0 multiplicity 1
 C        -0.199741         2.602348        -0.035041
 C        -0.755828         1.247269        -0.112440
 C        -2.196592         0.794340         0.476552
 C        -1.912142        -0.433244        -0.335876
 C        -0.716631        -1.186545         0.335326
 C         0.089361         0.109075         0.609811
 O         0.997979         0.133674         1.367508
 C        -1.127043         0.443329        -1.396139
 O        -2.170717         1.217030        -2.105993
 H        -0.839093         3.241513        -0.576728
 H        -0.094129         2.940088         1.038955
 H         0.898585         2.555516        -0.379882
 H        -2.219465         0.744218         1.613312
 H        -3.043432         1.345027         0.008962
 H        -2.759371        -1.057469        -0.683782
 H        -0.854603        -1.720555         1.237315
 H        -0.252466        -1.840152        -0.349140
 H        -0.512134         0.002347        -2.142678
 H        -2.217892         1.273326        -3.116774
