19
Iteration:   562charge 0 multiplicity 1
 C        -0.255784         2.621918        -0.062326
 C        -0.725906         1.186788         0.014359
 C        -1.872186         0.774523         0.882926
 C        -1.973415        -0.411655        -0.094780
 C        -0.756403        -1.207706         0.207030
 C         0.242417         0.020156         0.258255
 O         1.447531        -0.090803         0.388556
 C        -1.514615         0.564272        -1.165279
 O        -2.524881         1.471150        -1.631200
 H        -0.110444         2.980771         0.994724
 H         0.739941         2.713645        -0.612277
 H        -1.077767         3.255378        -0.544923
 H        -1.699698         0.534939         1.863716
 H        -2.659896         1.494481         0.715630
 H        -2.957057        -0.932881        -0.183841
 H        -0.827032        -1.634513         1.260054
 H        -0.382743        -1.929713        -0.491096
 H        -0.989010        -0.017674        -1.989933
 H        -3.000243         0.885808        -2.293898
