19
Iteration:  1095
 C        -0.328867         2.657239         0.055393
 C        -0.789235         1.187788         0.110946
 C        -2.130676         0.785050         0.799811
 C        -1.992094        -0.395515        -0.147233
 C        -0.800803        -1.148450         0.426326
 C         0.109827         0.056933         0.457830
 O         1.326001         0.034889         0.473736
 C        -1.316427         0.488155        -1.210168
 O        -2.082791         1.281804        -2.115721
 H         0.515545         2.851181        -0.584076
 H        -1.128876         3.332567        -0.240815
 H         0.042244         2.953751         1.092366
 H        -2.138664         0.656623         1.864191
 H        -2.918311         1.466388         0.480276
 H        -2.915093        -1.011477        -0.198067
 H        -1.033374        -1.476276         1.476644
 H        -0.381532        -2.132667        -0.171356
 H        -0.530893        -0.031779        -1.842325
 H        -2.887692         0.764452        -2.214461
