19
Iteration:  3098charge 0 multiplicity 1
 C        -0.358317         2.651863         0.031971
 C        -0.864409         1.215467        -0.098516
 C        -2.321976         0.850958         0.324754
 C        -1.824313        -0.499932        -0.570053
 C        -0.823571        -1.092295         0.495406
 C        -0.121001         0.141975         0.871677
 O         0.830246         0.234637         1.632663
 C        -1.020075         0.360990        -1.403395
 O        -1.594110         1.029894        -2.521826
 H         0.207100         2.846023        -0.926926
 H        -1.206632         3.334733        -0.111836
 H         0.365794         2.865224         0.948935
 H        -2.538121         0.561186         1.369566
 H        -3.093808         1.490779        -0.183049
 H        -2.503429        -1.315449        -0.998911
 H        -1.451729        -1.514239         1.298425
 H        -0.070450        -1.823246         0.221612
 H        -0.092955        -0.096327        -1.620740
 H        -1.862640         1.877947        -2.262377
