19
Iteration:  1726charge 0 multiplicity 1
 C        -0.057876         2.662084        -0.105518
 C        -0.706035         1.213876        -0.110474
 C        -2.045851         0.708085         0.540240
 C        -1.900762        -0.507814        -0.367958
 C        -0.694290        -1.200080         0.221004
 C         0.063414         0.086122         0.615936
 O         0.886104         0.230650         1.433053
 C        -1.247169         0.367989        -1.410892
 O        -2.268732         1.238570        -2.099849
 H         0.763408         2.677274        -0.828281
 H        -0.837615         3.408586        -0.481007
 H         0.327261         3.052762         0.930509
 H        -2.157863         0.431189         1.532835
 H        -2.808530         1.387372         0.210203
 H        -2.873929        -1.043345        -0.582464
 H        -0.816666        -1.752870         1.140073
 H        -0.210434        -1.884443        -0.484629
 H        -0.612538         0.174070        -2.239100
 H        -2.076679         2.087048        -1.781672
