19
Iteration:   474charge 0 multiplicity 1
 C        -0.060786         2.615545         0.165879
 C        -0.807254         1.228999         0.133468
 C        -1.996333         0.760425         0.975743
 C        -2.095835        -0.481911        -0.007073
 C        -0.729468        -1.164575         0.369322
 C         0.174617         0.031852         0.179855
 O         1.365033         0.072186        -0.049242
 C        -1.505104         0.477246        -1.156768
 O        -2.415135         1.374580        -1.738282
 H        -0.133176         3.090767        -0.822537
 H        -0.390408         3.431524         0.843249
 H         1.071730         2.528266         0.379732
 H        -1.807522         0.556097         1.989349
 H        -2.779208         1.512761         0.966303
 H        -2.920068        -1.273644         0.020602
 H        -0.728867        -1.603476         1.393179
 H        -0.349041        -2.049556        -0.180777
 H        -0.796312        -0.037731        -1.921950
 H        -2.606129         1.102728        -2.690771
