19
Iteration:  1909charge 0 multiplicity 1
 C        -0.416796         2.604053         0.226411
 C        -0.851511         1.261740         0.087342
 C        -2.259560         0.753863         0.444724
 C        -1.975566        -0.485512        -0.417311
 C        -0.905545        -1.072495         0.548825
 C         0.009434         0.162462         0.651861
 O         1.217671         0.157378         0.913590
 C        -1.140353         0.459126        -1.299989
 O        -1.746047         1.157366        -2.314882
 H        -0.338986         2.787451         1.284518
 H         0.617477         2.711023        -0.276216
 H        -1.289338         3.252865        -0.156549
 H        -2.682810         0.578090         1.551700
 H        -3.059138         1.348136        -0.105984
 H        -2.808884        -1.132918        -0.713316
 H        -1.393559        -1.289096         1.544568
 H        -0.278318        -1.969933         0.255915
 H        -0.127584        -0.041317        -1.584802
 H        -2.166210         0.539306        -2.966619
