19
Iteration:   630
 C         0.018813         2.451960        -0.409782
 C        -0.652325         1.173626        -0.193476
 C        -1.817772         0.670870         0.925837
 C        -1.889430        -0.404557        -0.153463
 C        -0.584849        -1.304915        -0.040533
 C         0.201509         0.020421         0.259612
 O         1.192333         0.148620         0.969595
 C        -1.613978         0.607463        -1.201240
 O        -2.728769         1.534858        -1.452591
 H         1.017587         2.185728        -0.947567
 H        -0.491810         3.293884        -1.021476
 H         0.358283         2.777263         0.533039
 H        -1.549450         0.311003         1.861052
 H        -2.680040         1.283639         0.846659
 H        -2.834667        -0.934448        -0.178738
 H        -0.665006        -1.978446         0.854521
 H        -0.469400        -1.813397        -0.931778
 H        -1.165274         0.347522        -2.221498
 H        -3.367792         1.038930        -1.967060
