19
Iteration:   684charge 0 multiplicity 1
 C        -0.046667         2.598000        -0.200042
 C        -0.662314         1.196283        -0.128266
 C        -1.817469         0.834416         0.874547
 C        -2.016171        -0.446188        -0.101518
 C        -0.697913        -1.233175         0.121214
 C         0.269384        -0.007779         0.222307
 O         1.321037         0.018331         0.827103
 C        -1.557327         0.541466        -1.237163
 O        -2.665336         1.412837        -1.699430
 H        -0.623723         3.344894        -0.861873
 H        -0.129282         2.993408         0.887233
 H         0.980879         2.513827        -0.437152
 H        -1.494665         0.792288         1.830540
 H        -2.710300         1.413870         0.813764
 H        -2.956183        -0.990231        -0.040112
 H        -0.664578        -1.864293         1.075905
 H        -0.560755        -1.898261        -0.720591
 H        -1.039277         0.222061        -2.134170
 H        -3.430183         0.793770        -1.745338
