19
Iteration:   402
 C        -0.195772         2.597666        -0.257293
 C        -0.633905         1.123924        -0.144879
 C        -1.728874         0.785132         0.903791
 C        -2.003153        -0.490888        -0.036217
 C        -0.681767        -1.191127         0.039147
 C         0.268669        -0.034429         0.152331
 O         1.398265        -0.033289         0.602690
 C        -1.637621         0.579418        -1.150100
 O        -2.763573         1.446924        -1.429642
 H         0.816267         2.606576         0.199241
 H        -0.071071         3.175420        -1.240537
 H        -0.759791         3.199542         0.401611
 H        -1.230122         0.577555         1.938668
 H        -2.540983         1.549729         0.955532
 H        -2.897010        -1.043004        -0.155807
 H        -0.453739        -1.871035         0.914593
 H        -0.461792        -1.812937        -0.800972
 H        -1.198564         0.225876        -2.067799
 H        -2.497474         2.342357        -1.668740
