19
Iteration:  3624charge 0 multiplicity 1
 C        -0.475955         2.714246         0.105413
 C        -0.900289         1.251227         0.119884
 C        -2.326713         0.822642         0.235268
 C        -1.946343        -0.469838        -0.424243
 C        -0.926405        -1.171059         0.508293
 C        -0.097532         0.096584         0.799596
 O         0.953532         0.230726         1.319255
 C        -0.996821         0.377371        -1.304552
 O        -1.406219         1.086507        -2.467961
 H         0.550228         2.946176         0.339002
 H        -0.777741         3.188514        -0.808872
 H        -1.062228         3.213019         0.899130
 H        -2.723789         1.018218         1.213280
 H        -2.872759         1.481602        -0.448650
 H        -2.794452        -1.114113        -0.911779
 H        -1.272611        -1.668764         1.433674
 H        -0.222951        -1.872827        -0.033389
 H         0.002659        -0.132011        -1.551737
 H        -2.004144         0.423830        -2.897356
