19
Iteration:  4093charge 0 multiplicity 1
 C        -0.265427         2.636927         0.158695
 C        -0.849174         1.166463        -0.028126
 C        -2.408648         0.752600         0.142923
 C        -1.910664        -0.513382        -0.467903
 C        -0.931495        -1.086397         0.573330
 C        -0.121720         0.187815         0.802130
 O         0.907987         0.283083         1.414503
 C        -0.973352         0.431066        -1.355745
 O        -1.651748         1.054099        -2.412579
 H         0.762490         2.425202         0.411607
 H        -0.157390         3.103709        -0.814087
 H        -0.548875         3.315208         0.990077
 H        -2.788491         0.626138         1.146395
 H        -3.141778         1.222357        -0.481081
 H        -2.489833        -1.269301        -0.912282
 H        -1.499798        -1.505999         1.392897
 H        -0.171578        -1.869894         0.294218
 H         0.025308         0.127095        -1.600047
 H        -1.044852         1.541610        -3.031131
