19
Iteration:   772charge 0 multiplicity 1
 C        -0.305190         2.544324         0.093489
 C        -0.781619         1.174209         0.142109
 C        -2.152604         0.875935         0.846994
 C        -2.065761        -0.335632        -0.126175
 C        -0.748607        -1.158836         0.599759
 C         0.182090         0.028688         0.367508
 O         1.340426         0.014444        -0.011239
 C        -1.313916         0.463134        -1.178643
 O        -2.227186         1.283165        -1.814132
 H         0.275895         2.761282         1.100089
 H         0.492701         2.741856        -0.704347
 H        -1.085819         3.272635        -0.107675
 H        -2.044247         0.705705         1.869825
 H        -2.948621         1.584858         0.585768
 H        -2.930471        -0.931532        -0.421829
 H        -0.965542        -1.450315         1.748418
 H        -0.338358        -2.045653         0.041710
 H        -0.579154         0.001752        -1.803564
 H        -1.936702         1.504325        -2.739548
