19
Iteration:  4407charge 0 multiplicity 1
 C        -0.487982         2.729146         0.174067
 C        -0.826708         1.250822         0.003101
 C        -2.337345         0.842592         0.277502
 C        -1.960393        -0.440094        -0.452640
 C        -1.053614        -1.072135         0.527857
 C        -0.109849         0.165588         0.806415
 O         0.977167         0.196111         1.342266
 C        -0.892224         0.365494        -1.362484
 O        -1.462511         0.884186        -2.497294
 H         0.419610         2.928040        -0.419166
 H        -1.245738         3.436597        -0.118968
 H        -0.374877         2.931101         1.166930
 H        -2.740220         0.551381         1.339645
 H        -3.003020         1.550895        -0.089652
 H        -2.690374        -1.093617        -0.902017
 H        -1.511422        -1.347960         1.476128
 H        -0.427827        -1.820948         0.051799
 H        -0.125614        -0.238154        -1.732669
 H        -0.983091         1.722889        -2.653833
