19
Iteration:  1011
 C        -0.142023         2.570346         0.054357
 C        -0.722791         1.206115         0.043242
 C        -2.178514         0.798075         0.743154
 C        -2.003554        -0.454434        -0.129724
 C        -0.805089        -1.187931         0.514045
 C         0.150429         0.033468         0.415883
 O         1.355881         0.120330         0.462103
 C        -1.345225         0.513650        -1.238147
 O        -2.317607         1.216444        -2.032174
 H         0.038727         2.893992         1.165070
 H         0.766775         2.597884        -0.592385
 H        -0.811599         3.341343        -0.370751
 H        -2.205772         0.736252         1.875705
 H        -2.921218         1.596980         0.431752
 H        -2.905485        -1.013215        -0.380221
 H        -0.920192        -1.598399         1.523465
 H        -0.459628        -1.934983        -0.111547
 H        -0.649503         0.038228        -1.992963
 H        -2.456917         2.206092        -1.953670
