19
Iteration:  1806
 C        -0.213861         2.611508        -0.021862
 C        -0.753418         1.241515        -0.077475
 C        -2.182401         0.814713         0.483166
 C        -1.905448        -0.461859        -0.353546
 C        -0.733302        -1.182117         0.380582
 C         0.060570         0.060538         0.560370
 O         1.002557         0.157011         1.314288
 C        -1.142324         0.488577        -1.393494
 O        -2.117905         1.211241        -2.091442
 H        -1.123247         3.136608        -0.545459
 H        -0.122567         2.830804         1.026364
 H         0.697841         2.527772        -0.568841
 H        -2.227093         0.772415         1.535424
 H        -2.988030         1.401692         0.096683
 H        -2.771311        -1.043643        -0.664125
 H        -1.075722        -1.685997         1.371248
 H        -0.223447        -1.937844        -0.327618
 H        -0.315319         0.061367        -2.079137
 H        -2.041597         1.186184        -3.004776
