19
Iteration:  2482
 C        -0.404089         2.702303         0.085970
 C        -0.864648         1.256371         0.194193
 C        -2.323857         0.744175         0.358089
 C        -1.963980        -0.503163        -0.523501
 C        -0.946097        -1.165386         0.477747
 C        -0.061043         0.148524         0.759263
 O         1.065813         0.238455         1.209086
 C        -1.010770         0.382588        -1.333406
 O        -1.566798         1.085393        -2.396362
 H         0.700832         2.743142         0.312949
 H        -0.577613         3.052815        -0.937980
 H        -1.040086         3.336305         0.723581
 H        -2.551673         0.571761         1.364984
 H        -3.048715         1.425644        -0.170093
 H        -2.775926        -1.174881        -0.792262
 H        -1.399089        -1.306655         1.482522
 H        -0.185519        -1.963075         0.123936
 H        -0.225700        -0.115846        -1.918288
 H        -2.446509         1.473916        -2.089954
