19
Iteration:  1131
 C        -0.045090         2.599828         0.006649
 C        -0.696059         1.234484        -0.035377
 C        -2.103777         0.745932         0.672351
 C        -2.011292        -0.458115        -0.187082
 C        -0.745781        -1.243186         0.311554
 C         0.162359         0.028668         0.502796
 O         1.307623         0.213611         0.893060
 C        -1.437958         0.489829        -1.383458
 O        -2.381361         1.269960        -2.054557
 H         0.256884         2.944903        -1.095092
 H        -0.745855         3.342749         0.481157
 H         0.809222         2.524310         0.679511
 H        -2.167695         0.659433         1.802652
 H        -2.916788         1.456601         0.326243
 H        -2.814304        -1.141546        -0.261326
 H        -1.048490        -1.740917         1.289469
 H        -0.321585        -2.039497        -0.399961
 H        -0.761933        -0.032611        -2.125233
 H        -3.052092         1.535893        -1.447147
