19
Iteration:  4802
 C        -0.301841         2.715291        -0.059725
 C        -0.772277         1.168418        -0.079724
 C        -2.245738         0.857303         0.277679
 C        -1.957934        -0.446736        -0.438966
 C        -0.738581        -1.110144         0.362545
 C        -0.055179         0.080021         0.821249
 O         0.707033         0.238344         1.697274
 C        -1.066325         0.321005        -1.400411
 O        -1.672463         1.065391        -2.384072
 H         0.517417         2.831365         0.695907
 H         0.017686         3.012943        -1.112136
 H        -1.284175         3.284757         0.201342
 H        -2.467930         0.714571         1.459540
 H        -3.058551         1.579972        -0.223019
 H        -2.671814        -1.250144        -0.818240
 H        -0.987427        -1.671560         1.238227
 H        -0.174744        -1.762570        -0.358801
 H        -0.295952        -0.345023        -1.778991
 H        -0.974876         1.732784        -2.765160
