19
Iteration:   404
 C        -0.196799         2.611810        -0.259887
 C        -0.627078         1.113540        -0.139930
 C        -1.733666         0.777756         0.904200
 C        -2.005926        -0.490318        -0.032355
 C        -0.680220        -1.170727         0.045656
 C         0.254475        -0.031723         0.148562
 O         1.396043        -0.040997         0.586358
 C        -1.626471         0.580063        -1.134517
 O        -2.746107         1.438351        -1.429824
 H         0.833227         2.594389         0.181106
 H        -0.163929         3.175749        -1.219003
 H        -0.784461         3.210962         0.512826
 H        -1.311216         0.604763         1.909124
 H        -2.501336         1.537891         0.942041
 H        -2.896835        -1.065752        -0.115989
 H        -0.539224        -1.828305         0.918771
 H        -0.419500        -1.829567        -0.829546
 H        -1.206235         0.201519        -2.113794
 H        -2.507871         2.360148        -1.744882
