19
Iteration:   878
 C        -0.082668         2.485554        -0.272358
 C        -0.675027         1.184091        -0.116153
 C        -1.923996         0.695677         0.757499
 C        -2.032862        -0.472942        -0.195375
 C        -0.656805        -1.183683         0.234290
 C         0.214477         0.058639         0.391610
 O         1.292517         0.101819         0.962577
 C        -1.542693         0.516984        -1.244215
 O        -2.599835         1.447824        -1.724154
 H         0.061732         2.593301        -1.377125
 H        -0.706212         3.354687        -0.001550
 H         0.966168         2.544415         0.184850
 H        -1.783358         0.396721         1.881514
 H        -2.610808         1.564997         0.639258
 H        -2.930622        -1.063957        -0.249688
 H        -0.534418        -1.716497         1.127109
 H        -0.264658        -1.764415        -0.560353
 H        -0.948947         0.133933        -2.136545
 H        -2.425166         1.765323        -2.647534
