19
Iteration:  4353charge 0 multiplicity 1
 C        -0.206419         2.568642        -0.022325
 C        -0.782821         1.195144        -0.015532
 C        -2.380620         0.747789         0.213327
 C        -1.865989        -0.557297        -0.596221
 C        -0.924783        -1.130782         0.479224
 C        -0.193481         0.199643         0.822184
 O         0.822047         0.346580         1.544336
 C        -0.931670         0.370817        -1.357163
 O        -1.693029         1.101966        -2.272927
 H         0.716643         2.732507        -0.512040
 H        -0.886687         3.280006        -0.434887
 H        -0.029752         2.931425         0.957032
 H        -2.748087         0.693722         1.390954
 H        -3.028390         1.392754        -0.306532
 H        -2.534490        -1.027026        -1.299744
 H        -1.326458        -1.453505         1.444905
 H        -0.168681        -1.921398         0.224563
 H        -0.135905        -0.077634        -1.936779
 H        -0.975295         1.555984        -2.812142
