19
Iteration:  2639charge 0 multiplicity 1
 C        -0.282464         2.640740        -0.018704
 C        -0.822141         1.222773        -0.061127
 C        -2.302043         0.723542         0.306679
 C        -1.915918        -0.568613        -0.412828
 C        -0.862488        -1.199440         0.480307
 C         0.011231         0.106240         0.705253
 O         0.844348         0.330375         1.555770
 C        -1.038058         0.400396        -1.426850
 O        -1.660392         1.190828        -2.364924
 H        -0.928592         3.271357        -0.622824
 H        -0.248304         3.124245         0.981583
 H         0.747367         2.750435        -0.424299
 H        -2.533467         0.791275         1.286334
 H        -3.012729         1.135754        -0.330327
 H        -2.582224        -1.270713        -1.020911
 H        -1.242925        -1.544200         1.473575
 H        -0.450678        -2.098787         0.011467
 H        -0.134431        -0.057688        -1.891065
 H        -2.483780         1.665918        -2.056089
