19
Iteration:  2838
 C        -0.299251         2.611818        -0.057141
 C        -0.831063         1.234615         0.039661
 C        -2.228844         0.750569         0.362516
 C        -1.864072        -0.491924        -0.461034
 C        -0.774599        -1.220174         0.397410
 C        -0.120891         0.117470         0.802319
 O         0.746922         0.262099         1.653891
 C        -1.008861         0.517566        -1.463824
 O        -1.646926         1.081681        -2.508973
 H         0.386706         2.896289         0.748644
 H         0.261970         2.727722        -0.964556
 H        -1.135076         3.399588        -0.047451
 H        -2.526248         0.650610         1.388388
 H        -3.037104         1.318758        -0.141210
 H        -2.850499        -1.062373        -0.728250
 H        -1.301217        -1.536975         1.335803
 H         0.040095        -1.912706         0.061752
 H        -0.031507         0.055386        -1.871684
 H        -2.348672         1.732288        -2.207143
