19
Iteration:  1820charge 0 multiplicity 1
 C        -0.312327         2.603721        -0.027580
 C        -0.743565         1.152622        -0.016020
 C        -2.123931         0.803642         0.503846
 C        -1.934149        -0.524342        -0.415198
 C        -0.872315        -1.207223         0.395386
 C         0.044461         0.068539         0.622229
 O         1.071992         0.213783         1.183378
 C        -1.162689         0.469225        -1.275179
 O        -2.036873         1.261855        -2.139201
 H        -1.100223         3.375865        -0.236153
 H         0.170071         3.026475         0.856908
 H         0.478940         2.974934        -0.696781
 H        -2.293240         0.607425         1.648693
 H        -2.851975         1.540758         0.036995
 H        -2.721361        -1.137197        -0.839893
 H        -1.168160        -1.499858         1.436457
 H        -0.286550        -2.110860         0.025671
 H        -0.283265         0.161723        -1.964703
 H        -1.730839         1.068446        -3.090641
