19
Iteration:  4609charge 0 multiplicity 1
 C        -0.143716         2.621888         0.016270
 C        -0.763149         1.178412        -0.147285
 C        -2.292289         0.737217         0.110903
 C        -1.834809        -0.593746        -0.506853
 C        -0.901412        -1.163930         0.534259
 C        -0.105919         0.159113         0.889200
 O         0.761039         0.377422         1.653031
 C        -0.955710         0.355917        -1.424960
 O        -1.845075         1.206862        -2.353073
 H         0.904261         2.573631        -0.027003
 H        -0.586985         3.345845        -0.663472
 H        -0.358795         2.815811         1.079905
 H        -2.631109         0.672077         1.274932
 H        -3.111173         1.320853        -0.470564
 H        -2.526022        -1.312001        -0.907143
 H        -1.244866        -1.640687         1.500189
 H        -0.208576        -1.987741         0.130154
 H        -0.109829        -0.165098        -1.887499
 H        -1.303212         1.510221        -3.148192
