19
Iteration:   694charge 0 multiplicity 1
 C        -0.068773         2.619260        -0.131838
 C        -0.634555         1.185688        -0.071795
 C        -1.848155         0.825435         0.893207
 C        -2.044496        -0.418532        -0.056789
 C        -0.738296        -1.305368         0.129566
 C         0.229717         0.009527         0.265749
 O         1.361192         0.051213         0.718935
 C        -1.571369         0.517590        -1.250113
 O        -2.607515         1.415229        -1.759540
 H        -0.862688         3.263756        -0.690356
 H         0.256995         3.075523         0.894333
 H         0.789462         2.721874        -0.759558
 H        -1.647348         0.527786         1.880968
 H        -2.543100         1.639432         0.874244
 H        -3.006100        -0.926071        -0.208354
 H        -0.576856        -1.763516         1.216976
 H        -0.478725        -2.087035        -0.603063
 H        -0.942917         0.048993        -1.968925
 H        -3.414966         0.849594        -2.000793
