19
Iteration:  3283charge 0 multiplicity 1
 C        -0.476527         2.763580         0.046969
 C        -0.827664         1.251563         0.057548
 C        -2.503763         0.719057         0.203420
 C        -1.903710        -0.555488        -0.466594
 C        -1.002789        -1.111504         0.497328
 C        -0.117750         0.194830         0.857357
 O         1.009649         0.226260         1.252790
 C        -0.944287         0.321721        -1.246118
 O        -1.339085         1.134202        -2.335932
 H         0.597473         2.997206         0.030979
 H        -0.921577         3.348062        -0.714510
 H        -0.832338         3.068059         1.102514
 H        -3.001576         0.548578         1.178738
 H        -3.165896         1.216936        -0.596466
 H        -2.547667        -1.282631        -1.157232
 H        -1.558132        -1.536997         1.408134
 H        -0.165316        -1.832965         0.153900
 H        -0.062955        -0.125301        -1.657405
 H        -2.207977         0.842327        -2.486631
