19
Iteration:  3233charge 0 multiplicity 1
 C        -0.367765         2.680318         0.044645
 C        -0.784045         1.223959        -0.019073
 C        -2.267188         0.689851         0.215072
 C        -1.957204        -0.536254        -0.507516
 C        -0.925885        -1.190998         0.460052
 C        -0.067037         0.153494         0.807525
 O         0.862655         0.324682         1.617429
 C        -0.989512         0.420298        -1.394563
 O        -1.597503         1.160115        -2.407947
 H         0.698704         2.694556         0.327764
 H        -0.553148         3.258424        -0.906011
 H        -0.841624         3.306400         0.814000
 H        -2.430043         0.511713         1.273427
 H        -2.890591         1.407297        -0.259067
 H        -2.706654        -1.132126        -0.911463
 H        -1.318113        -1.679322         1.316105
 H        -0.283678        -1.791231        -0.140138
 H        -0.045743        -0.046590        -1.877380
 H        -2.038970         0.445649        -2.923760
