19
Iteration:  3648charge 0 multiplicity 1
 C        -0.418940         2.654822         0.104814
 C        -0.830722         1.238385        -0.034486
 C        -2.391892         0.795424         0.225321
 C        -1.932170        -0.455843        -0.510621
 C        -0.939757        -1.076852         0.469589
 C        -0.047062         0.163694         0.803662
 O         0.947937         0.224843         1.482075
 C        -0.950905         0.358474        -1.378511
 O        -1.580545         1.068770        -2.373762
 H         0.586911         2.723258         0.517348
 H        -0.545700         3.302632        -0.796115
 H        -1.001318         3.065574         0.803552
 H        -2.427867         0.707903         1.351581
 H        -3.045049         1.575120        -0.106156
 H        -2.594379        -1.187734        -0.962844
 H        -1.396582        -1.459364         1.393928
 H        -0.240026        -1.858791         0.099969
 H        -0.087644        -0.217495        -1.752852
 H        -1.460177         0.529084        -3.106380
