19
Iteration:  2847
 C        -0.259333         2.685522        -0.038190
 C        -0.717228         1.244393        -0.002079
 C        -2.253823         0.741847         0.295842
 C        -1.874004        -0.548021        -0.522454
 C        -0.826413        -1.204320         0.380725
 C        -0.085969         0.138384         0.838172
 O         0.742005         0.292276         1.698334
 C        -1.057496         0.417922        -1.348072
 O        -1.694841         1.094228        -2.506610
 H         0.411419         2.954314         0.729647
 H         0.209683         2.765500        -0.974054
 H        -1.192858         3.251107         0.073198
 H        -2.399652         0.762768         1.378732
 H        -2.857927         1.514199        -0.249454
 H        -2.691855        -1.262795        -0.942968
 H        -1.161185        -1.862365         1.206855
 H        -0.128891        -1.814098        -0.229159
 H        -0.198370         0.061939        -1.884466
 H        -2.328592         1.746669        -2.086794
