19
Iteration:   944
 C        -0.110186         2.469632        -0.270742
 C        -0.674057         1.142373        -0.204001
 C        -1.809431         0.804599         0.842685
 C        -1.900857        -0.367042        -0.164478
 C        -0.611509        -1.220664         0.073153
 C         0.204346         0.086595         0.385558
 O         1.150309         0.094453         1.150867
 C        -1.580133         0.540433        -1.278801
 O        -2.537942         1.372234        -1.856074
 H        -0.941585         3.271216        -0.155762
 H         0.735666         2.623280         0.458039
 H         0.433509         2.657575        -1.315805
 H        -1.631714         0.562070         1.957192
 H        -2.759359         1.440134         0.791065
 H        -2.759534        -0.965951        -0.391429
 H        -0.885587        -1.759506         0.945427
 H        -0.290857        -1.886128        -0.684577
 H        -1.008504         0.013043        -2.111447
 H        -3.388142         1.124694        -1.478877
