19
Iteration:  4765
 C        -0.246519         2.665948         0.120414
 C        -0.824672         1.235798         0.043596
 C        -2.394783         0.768333         0.131760
 C        -1.847761        -0.507304        -0.561156
 C        -0.977495        -1.151932         0.568434
 C        -0.093908         0.072473         0.838868
 O         0.892150         0.341307         1.457148
 C        -0.934522         0.435453        -1.370638
 O        -1.714458         1.009419        -2.402319
 H         0.741251         2.627694         0.531623
 H        -0.087597         3.008900        -0.869091
 H        -0.697375         3.390116         0.688183
 H        -2.707682         0.520869         1.203125
 H        -3.090552         1.419266        -0.407718
 H        -2.553140        -1.212472        -1.089585
 H        -1.693355        -1.274336         1.420134
 H        -0.366682        -2.024719         0.422566
 H         0.055525         0.104746        -1.747201
 H        -1.086392         1.612215        -2.951470
