19
Iteration:  1526charge 0 multiplicity 1
 C        -0.272432         2.555372        -0.132797
 C        -0.756565         1.227505        -0.109719
 C        -2.102915         0.698912         0.663370
 C        -1.971417        -0.491694        -0.328807
 C        -0.702509        -1.264865         0.223497
 C         0.041288         0.091120         0.589599
 O         1.092753         0.224892         1.228194
 C        -1.267040         0.431055        -1.357528
 O        -2.059739         1.421111        -1.992969
 H        -1.095747         3.256834        -0.435364
 H        -0.058417         2.844696         0.916475
 H         0.716039         2.652417        -0.711134
 H        -2.108280         0.397383         1.719509
 H        -2.972560         1.235761         0.341441
 H        -2.906837        -1.022488        -0.477730
 H        -0.827162        -1.979354         1.055488
 H        -0.197320        -1.741477        -0.623671
 H        -0.520426         0.166030        -2.175169
 H        -2.651467         0.909035        -2.607588
