19
Iteration:  3522
 C        -0.401262         2.648434         0.084459
 C        -0.808258         1.266414         0.005737
 C        -2.320178         0.857964         0.295925
 C        -1.862261        -0.493569        -0.535879
 C        -0.852269        -1.162988         0.414077
 C        -0.090318         0.153446         0.803975
 O         0.854016         0.310439         1.614619
 C        -0.975249         0.333384        -1.428650
 O        -1.659822         1.008176        -2.439670
 H         0.620727         2.665823        -0.316629
 H        -0.939468         3.425575        -0.406117
 H        -0.209761         2.939990         1.173322
 H        -2.739772         0.626398         1.260876
 H        -3.108776         1.408684        -0.265123
 H        -2.682092        -1.188669        -1.001127
 H        -1.389190        -1.614330         1.277291
 H        -0.216402        -1.949320        -0.013760
 H        -0.078145        -0.245752        -1.916657
 H        -1.122627         1.608847        -2.929648
