19
Iteration:   181charge 0 multiplicity 1
 C        -0.079419         2.563729         0.260966
 C        -0.652417         1.222858         0.177172
 C        -1.849188         0.710651         0.984793
 C        -2.003514        -0.416183         0.002291
 C        -0.728711        -1.155212         0.207789
 C         0.250506         0.054425         0.050965
 O         1.474175        -0.014517        -0.187186
 C        -1.661258         0.528659        -1.121359
 O        -2.754704         1.356672        -1.565167
 H        -0.183568         2.862335         1.326117
 H         1.028023         2.574212        -0.066045
 H        -0.487096         3.396229        -0.330812
 H        -1.689365         0.519885         2.110527
 H        -2.724112         1.399085         0.884829
 H        -2.950334        -1.001397        -0.029090
 H        -0.774050        -1.549832         1.261442
 H        -0.254511        -1.944841        -0.350650
 H        -0.999879         0.264770        -2.006068
 H        -2.275544         1.905144        -2.216663
