19
Iteration:  1562
 C        -0.311796         2.683047         0.078294
 C        -0.839274         1.191601         0.060612
 C        -2.314475         0.708818         0.528092
 C        -1.950726        -0.488059        -0.323932
 C        -0.818133        -1.248562         0.430905
 C         0.134946         0.086286         0.583635
 O         1.327478         0.142212         0.957817
 C        -1.198915         0.527217        -1.320514
 O        -2.051318         1.323719        -2.151891
 H        -1.052423         3.312595         0.489639
 H         0.450227         2.637296         0.857110
 H         0.050305         3.159752        -0.860722
 H        -2.629032         0.532260         1.510204
 H        -3.037223         1.354015         0.007885
 H        -2.830879        -1.027992        -0.760769
 H        -1.163620        -1.514638         1.485154
 H        -0.328435        -2.198731        -0.027613
 H        -0.315259        -0.010559        -1.788801
 H        -2.446352         0.795738        -2.928057
