19
Iteration:  2023
 C        -0.238054         2.543953        -0.226744
 C        -0.712801         1.092315        -0.168477
 C        -2.077018         0.773527         0.499553
 C        -1.903589        -0.484597        -0.451180
 C        -0.667032        -1.196621         0.164474
 C         0.121049         0.101550         0.688211
 O         0.767865         0.307986         1.706538
 C        -1.160806         0.463867        -1.405591
 O        -2.070067         1.312968        -2.045998
 H         0.822730         2.414896         0.017040
 H        -0.281584         2.907224        -1.215822
 H        -0.751224         3.159719         0.462862
 H        -2.039971         0.513153         1.650397
 H        -2.936986         1.424973         0.216421
 H        -2.680136        -1.234578        -0.700208
 H        -0.947687        -1.862133         0.950667
 H        -0.127380        -1.667484        -0.610457
 H        -0.642717        -0.094933        -2.237666
 H        -2.403258         1.000437        -2.951279
