19
Iteration:  1599
 C        -0.361358         2.647785         0.334467
 C        -0.864245         1.314266         0.067743
 C        -2.298449         0.764143         0.510285
 C        -1.955836        -0.457003        -0.340016
 C        -0.827002        -1.094228         0.511201
 C        -0.000606         0.130532         0.578348
 O         1.222819         0.099978         0.640967
 C        -1.081352         0.377055        -1.270134
 O        -1.950716         1.126110        -2.156533
 H        -0.787900         2.972578         1.411086
 H         0.783390         2.655758         0.265004
 H        -0.717132         3.414764        -0.312639
 H        -2.565894         0.792625         1.667756
 H        -2.927615         1.537538         0.029790
 H        -2.725126        -0.999447        -0.868833
 H        -1.239417        -1.289976         1.533395
 H        -0.203433        -1.955951         0.146624
 H        -0.288637         0.001201        -1.923608
 H        -1.488439         1.069982        -3.089233
