19
Iteration:  3322charge 0 multiplicity 1
 C        -0.472267         2.604013         0.188734
 C        -0.894204         1.223738         0.064888
 C        -2.452284         0.702247         0.206255
 C        -1.858069        -0.531416        -0.510696
 C        -0.968283        -1.078487         0.610202
 C        -0.135248         0.226531         0.830045
 O         0.970952         0.247429         1.227831
 C        -0.883978         0.492596        -1.307401
 O        -1.391752         1.041674        -2.472903
 H         0.596914         2.722123        -0.122682
 H        -1.217188         3.269726        -0.369226
 H        -0.540543         2.906371         1.201909
 H        -2.889366         0.759602         1.209562
 H        -2.923771         1.337927        -0.476584
 H        -2.446531        -1.296741        -0.867576
 H        -1.670100        -1.261917         1.382768
 H        -0.392954        -1.931031         0.369830
 H         0.099912        -0.093965        -1.538623
 H        -2.368529         1.303017        -2.531295
