19
Iteration:   797charge 0 multiplicity 1
 C        -0.166632         2.709300         0.202161
 C        -0.739559         1.275683         0.136289
 C        -2.062222         0.768467         0.794670
 C        -2.051967        -0.463165        -0.071448
 C        -0.816111        -1.156508         0.584305
 C         0.181999         0.082569         0.332369
 O         1.370673        -0.057963         0.095424
 C        -1.433955         0.496682        -1.192983
 O        -2.332109         1.195449        -1.986534
 H         0.833636         2.701262         0.702016
 H         0.093700         3.199214        -0.757414
 H        -0.988192         3.540518         0.623857
 H        -2.041351         0.846037         1.855723
 H        -2.889259         1.393794         0.454094
 H        -2.965193        -1.097029        -0.181670
 H        -0.934559        -1.357796         1.660337
 H        -0.515330        -2.095554         0.031249
 H        -0.622668         0.110181        -1.881434
 H        -2.003536         2.001675        -2.374898
