19
Iteration:  1367
 C        -0.412067         2.713729         0.131377
 C        -0.784256         1.303622         0.218320
 C        -2.232027         0.706600         0.572968
 C        -1.962625        -0.477645        -0.240345
 C        -0.823537        -1.146989         0.463752
 C         0.059962         0.056786         0.575065
 O         1.292005         0.035208         0.572860
 C        -1.234571         0.433441        -1.253936
 O        -1.924098         1.245356        -2.186333
 H         0.487141         2.963363         0.673326
 H        -0.311401         3.068341        -0.915108
 H        -1.244600         3.399596         0.486273
 H        -2.291394         0.488557         1.654721
 H        -3.075425         1.368565         0.297086
 H        -2.807614        -1.194458        -0.493120
 H        -1.168683        -1.610190         1.371967
 H        -0.264553        -1.841618        -0.019921
 H        -0.439104        -0.054957        -1.855899
 H        -2.562024         1.855428        -1.683248
