19
Iteration:  3190charge 0 multiplicity 1
 C        -0.154464         2.584367         0.006432
 C        -0.729414         1.222717        -0.108670
 C        -2.245624         0.769379         0.241500
 C        -1.873799        -0.592339        -0.530002
 C        -0.729942        -1.213735         0.361803
 C        -0.056535         0.165800         0.852930
 O         0.621550         0.380904         1.805505
 C        -0.947998         0.430894        -1.395234
 O        -1.905772         1.164122        -2.378113
 H         0.902093         2.491518        -0.241076
 H        -0.602703         3.125085        -0.875298
 H        -0.292017         3.088998         0.923496
 H        -2.639741         0.624121         1.253137
 H        -2.900139         1.179050        -0.531708
 H        -2.660185        -1.132227        -0.943551
 H        -1.029937        -1.770345         1.239280
 H        -0.031196        -1.819797        -0.203419
 H        -0.124173         0.121541        -1.886811
 H        -1.709680         0.987640        -3.365856
