19
Iteration:  1274charge 0 multiplicity 1
 C        -0.208819         2.544704         0.105132
 C        -0.818837         1.194581         0.086302
 C        -2.200393         0.797297         0.630920
 C        -2.035412        -0.475352        -0.285968
 C        -0.720525        -1.114370         0.375287
 C         0.140555         0.084072         0.471995
 O         1.298676         0.164815         0.846894
 C        -1.290954         0.564701        -1.282415
 O        -2.256724         1.130464        -2.151075
 H        -0.560393         3.049659         1.062135
 H         0.886485         2.468143         0.232038
 H        -0.334964         3.151684        -0.755788
 H        -2.149815         0.534921         1.722509
 H        -3.025885         1.453238         0.346529
 H        -2.845579        -1.117676        -0.546749
 H        -0.997344        -1.567198         1.383257
 H        -0.131839        -1.948078        -0.296257
 H        -0.483456         0.114032        -1.968919
 H        -1.896340         1.997750        -2.211494
