19
Iteration:  1778charge 0 multiplicity 1
 C        -0.024145         2.634352        -0.054564
 C        -0.652275         1.218465        -0.049195
 C        -2.094648         0.771706         0.477734
 C        -1.970371        -0.534574        -0.455322
 C        -0.641045        -1.140832         0.198811
 C         0.083022         0.096882         0.706087
 O         0.979274         0.212972         1.520369
 C        -1.397204         0.445882        -1.376976
 O        -2.284693         1.199982        -2.155513
 H        -0.404907         3.026949        -0.971784
 H        -0.401623         3.241910         0.824226
 H         1.089078         2.468089         0.174596
 H        -2.183105         0.689876         1.665575
 H        -2.835121         1.516729         0.020258
 H        -2.754969        -1.293514        -0.581981
 H        -0.908223        -1.937404         0.833779
 H         0.037841        -1.571912        -0.500751
 H        -0.772840         0.126594        -2.204471
 H        -2.107202         1.237608        -3.110878
