19
Iteration:  1173charge 0 multiplicity 1
 C         0.022015         2.595599        -0.276027
 C        -0.691495         1.180328        -0.186200
 C        -1.979551         0.719080         0.754608
 C        -1.911046        -0.467348        -0.250595
 C        -0.653453        -1.125657         0.059504
 C         0.148768         0.102850         0.463562
 O         1.040215         0.140240         1.322898
 C        -1.449423         0.489389        -1.363136
 O        -2.506905         1.227154        -1.805066
 H        -0.314306         3.216033        -1.156010
 H        -0.218878         3.167246         0.626071
 H         1.101346         2.620448        -0.408988
 H        -1.777209         0.433828         1.778565
 H        -2.933629         1.271371         0.619146
 H        -2.804388        -1.041728        -0.397613
 H        -0.730631        -1.761719         1.013472
 H        -0.192577        -1.876012        -0.799238
 H        -0.855956         0.160667        -2.294542
 H        -2.129384         2.009847        -2.342762
