19
Iteration:  1407charge 0 multiplicity 1
 C        -0.189930         2.625411         0.046142
 C        -0.790934         1.135485         0.026022
 C        -2.130890         0.728699         0.621365
 C        -1.995328        -0.486377        -0.284104
 C        -0.725923        -1.174433         0.286855
 C         0.104358         0.060847         0.519164
 O         1.231777         0.213735         1.006289
 C        -1.369269         0.449242        -1.308905
 O        -2.172808         1.282208        -2.118076
 H         0.859672         2.703360         0.004248
 H        -0.533928         3.027768        -0.902029
 H        -0.625896         3.193434         0.909045
 H        -2.219091         0.408047         1.649586
 H        -3.009103         1.214894         0.234335
 H        -2.888920        -1.090277        -0.489497
 H        -0.871926        -1.654739         1.316312
 H        -0.430999        -1.963586        -0.536506
 H        -0.568698        -0.038584        -1.907047
 H        -1.954944         2.210529        -2.044915
