19
Iteration:  3049
 C        -0.442020         2.578857         0.161048
 C        -0.960200         1.220157         0.141839
 C        -2.391375         0.859810         0.172447
 C        -1.971591        -0.476060        -0.518544
 C        -0.936598        -1.065296         0.551557
 C        -0.161782         0.225739         0.848439
 O         1.002146         0.327264         1.279076
 C        -0.909907         0.265275        -1.377175
 O        -1.381701         1.025641        -2.432489
 H         0.497994         2.591915        -0.414732
 H        -1.091900         3.429611        -0.136927
 H        -0.079778         2.602397         1.129448
 H        -2.653222         0.729262         1.188115
 H        -3.082238         1.321026        -0.453867
 H        -2.717302        -1.111277        -0.924822
 H        -1.314572        -1.461398         1.512913
 H        -0.286583        -1.847321         0.067849
 H         0.011053        -0.428841        -1.553685
 H        -2.389782         1.243262        -2.390747
