19
Iteration:  1388
 C        -0.374032         2.604482         0.035514
 C        -0.828625         1.192784         0.072125
 C        -2.281031         0.790516         0.694193
 C        -2.025806        -0.491237        -0.276724
 C        -0.786644        -1.207226         0.339856
 C         0.123779         0.076009         0.499866
 O         1.341025         0.122859         0.812015
 C        -1.200092         0.522228        -1.267959
 O        -2.048568         1.223666        -2.124053
 H         0.622360         2.577704         0.385464
 H        -0.343103         3.140585        -0.932708
 H        -0.966132         3.299202         0.738415
 H        -2.362266         0.763121         1.793637
 H        -2.943404         1.554716         0.242193
 H        -2.838824        -1.122940        -0.787105
 H        -1.009895        -1.737399         1.282817
 H        -0.278312        -1.940927        -0.259600
 H        -0.413366        -0.034017        -1.675272
 H        -2.145700         2.110858        -1.643664
