19
Iteration:   489
 C        -0.040078         2.602011         0.189523
 C        -0.744720         1.225464         0.103383
 C        -2.044878         0.758918         0.928858
 C        -2.064846        -0.463503         0.027797
 C        -0.776164        -1.199827         0.407187
 C         0.203253         0.071216         0.238550
 O         1.339603         0.142879        -0.145585
 C        -1.521260         0.404011        -1.091395
 O        -2.342632         1.376997        -1.772139
 H        -0.476388         3.412973        -0.420569
 H        -0.144111         2.785191         1.307615
 H         0.932419         2.369738        -0.025537
 H        -1.882895         0.609861         2.091661
 H        -2.938195         1.355665         0.618191
 H        -3.017280        -0.920720        -0.174639
 H        -0.851550        -1.484733         1.496557
 H        -0.539594        -1.989693        -0.264882
 H        -0.902085        -0.122242        -1.796093
 H        -2.741510         0.906904        -2.498876
