19
Iteration:  4318charge 0 multiplicity 1
 C        -0.169578         2.533358        -0.068645
 C        -0.694771         1.163724        -0.118471
 C        -2.299718         0.797519         0.299685
 C        -1.890881        -0.550690        -0.475206
 C        -0.762529        -1.186393         0.458079
 C        -0.092324         0.139483         0.795805
 O         0.669664         0.341383         1.787139
 C        -1.005816         0.454158        -1.450921
 O        -1.804033         1.185736        -2.402196
 H         0.923224         2.459351        -0.261986
 H        -0.695730         3.081363        -0.836975
 H        -0.438432         2.906131         0.828356
 H        -2.655280         0.624732         1.423471
 H        -3.056668         1.375845        -0.318538
 H        -2.599557        -1.096970        -1.173833
 H        -1.148468        -1.599198         1.387698
 H        -0.130369        -1.891762        -0.043595
 H        -0.239547        -0.086418        -1.932053
 H        -1.306350         1.596513        -3.168356
