19
Iteration:  3261charge 0 multiplicity 1
 C        -0.534610         2.606923         0.045780
 C        -0.914107         1.210604         0.062743
 C        -2.374300         0.794518         0.255267
 C        -1.909750        -0.518249        -0.487962
 C        -0.872740        -1.136220         0.548752
 C        -0.122447         0.176834         0.782761
 O         0.939772         0.227348         1.395413
 C        -0.933361         0.403179        -1.366579
 O        -1.392615         1.182886        -2.414710
 H         0.568346         2.594355         0.149080
 H        -0.692686         3.022239        -0.914472
 H        -0.959376         3.213773         0.939606
 H        -2.531233         0.653466         1.349718
 H        -3.111274         1.538391        -0.239357
 H        -2.710878        -1.293953        -0.929394
 H        -1.386600        -1.423213         1.548949
 H        -0.134944        -1.987865         0.251496
 H        -0.067423        -0.039196        -1.853526
 H        -2.253434         0.725423        -2.752881
