19
Iteration:   396charge 0 multiplicity 1
 C        -0.153272         2.548645        -0.256609
 C        -0.668705         1.190094        -0.172947
 C        -1.710201         0.787643         0.940423
 C        -1.987153        -0.451790        -0.056117
 C        -0.669192        -1.277995         0.045011
 C         0.307666        -0.034308         0.160438
 O         1.411704        -0.007333         0.651899
 C        -1.688894         0.576933        -1.200129
 O        -2.816624         1.457480        -1.425640
 H         0.805315         2.677566         0.276046
 H         0.122469         2.910616        -1.220109
 H        -0.903905         3.346450         0.207818
 H        -1.250676         0.551969         1.834571
 H        -2.541230         1.452734         0.998715
 H        -2.973017        -1.001278        -0.181884
 H        -0.362134        -1.916514         0.844365
 H        -0.535384        -1.864265        -0.948789
 H        -1.167126         0.208600        -2.160375
 H        -2.368297         2.367734        -1.462589
