19
Iteration:   200
 C        -0.034760         2.500068         0.274748
 C        -0.751899         1.186646         0.082375
 C        -1.950092         0.752722         1.041445
 C        -2.038938        -0.396688         0.019784
 C        -0.636113        -1.204676         0.330195
 C         0.233347        -0.014233         0.124518
 O         1.389570         0.082485        -0.291212
 C        -1.541544         0.592146        -1.099824
 O        -2.649703         1.335325        -1.674724
 H         0.470114         2.587076         1.253838
 H         0.650260         2.653390        -0.472820
 H        -0.670015         3.437953         0.256363
 H        -1.670375         0.459303         2.080097
 H        -2.727661         1.539283         1.166964
 H        -2.904952        -1.134540        -0.121368
 H        -0.532640        -1.622736         1.260068
 H        -0.509815        -1.994465        -0.473883
 H        -1.086150         0.076701        -1.882390
 H        -2.700645         2.330252        -1.602805
