19
Iteration:  2536charge 0 multiplicity 1
 C        -0.271502         2.576155         0.098050
 C        -0.704940         1.154034         0.035424
 C        -2.236020         0.794791         0.335844
 C        -1.923566        -0.492364        -0.504986
 C        -0.858906        -1.150953         0.350981
 C         0.006113         0.117056         0.744395
 O         0.879209         0.388201         1.553088
 C        -1.089531         0.317667        -1.375716
 O        -1.809095         1.123614        -2.442720
 H         0.485581         2.780744        -0.694509
 H        -1.080800         3.231127        -0.178637
 H         0.283976         2.876912         0.971870
 H        -2.826334         0.902834         1.321481
 H        -2.943896         1.456747        -0.302426
 H        -2.622534        -1.200144        -0.901403
 H        -1.211125        -1.813455         1.168526
 H         0.000048        -1.759407        -0.099156
 H        -0.324161        -0.144260        -2.011430
 H        -2.414591         1.695759        -1.915216
