19
Iteration:   245
 C        -0.202105         2.571768         0.072198
 C        -0.737345         1.162629         0.153723
 C        -1.925827         0.737227         1.058109
 C        -2.111603        -0.441476         0.020554
 C        -0.677986        -1.193203         0.282074
 C         0.301495         0.030265         0.148014
 O         1.444253        -0.009356        -0.202585
 C        -1.596238         0.541166        -1.064682
 O        -2.440325         1.483447        -1.634176
 H         0.822409         2.453199        -0.302381
 H        -0.770275         3.199196        -0.604873
 H        -0.118318         3.040458         1.072509
 H        -1.751301         0.392289         2.137444
 H        -2.775537         1.454573         1.193805
 H        -3.178109        -0.867945        -0.120704
 H        -0.639888        -1.711724         1.196427
 H        -0.420175        -1.799544        -0.597679
 H        -0.907602         0.169993        -1.786807
 H        -3.398554         1.199017        -1.543759
