19
Iteration:  1598charge 0 multiplicity 1
 C        -0.366266         2.642400         0.324229
 C        -0.860457         1.310589         0.072443
 C        -2.297048         0.773396         0.510776
 C        -1.949923        -0.459223        -0.347632
 C        -0.819338        -1.101541         0.513247
 C         0.001196         0.134484         0.581721
 O         1.215439         0.096818         0.644309
 C        -1.090325         0.385047        -1.270998
 O        -1.954673         1.127892        -2.152821
 H        -0.793660         2.962801         1.376117
 H         0.778792         2.689887         0.316111
 H        -0.663378         3.401184        -0.309094
 H        -2.555075         0.772542         1.650076
 H        -2.912871         1.561712         0.033246
 H        -2.737374        -0.992072        -0.886612
 H        -1.251484        -1.273596         1.546155
 H        -0.148150        -1.967761         0.135056
 H        -0.257384        -0.011384        -1.916102
 H        -1.519328         1.046635        -3.100982
