19
Iteration:   194
 C        -0.031680         2.514511         0.284391
 C        -0.723274         1.177031         0.088291
 C        -1.939198         0.749453         1.076767
 C        -2.005019        -0.405723         0.005890
 C        -0.648200        -1.151937         0.288809
 C         0.245407         0.012803         0.131825
 O         1.414854         0.048217        -0.269075
 C        -1.613183         0.587842        -1.159584
 O        -2.682700         1.325574        -1.636210
 H         0.266048         2.669023         1.338008
 H         0.981933         2.589649        -0.351307
 H        -0.801421         3.249162         0.056997
 H        -1.689936         0.415208         2.107725
 H        -2.787447         1.441980         1.053320
 H        -2.857248        -1.039668        -0.091016
 H        -0.547494        -1.561323         1.388772
 H        -0.672105        -1.915261        -0.461366
 H        -1.027794         0.085096        -2.040289
 H        -2.481789         2.286828        -1.822062
