19
Iteration:  4810
 C        -0.309150         2.687792        -0.104807
 C        -0.772266         1.246598        -0.064914
 C        -2.203526         0.828613         0.330199
 C        -1.992285        -0.497902        -0.428479
 C        -0.737321        -1.192643         0.348678
 C        -0.046550         0.141370         0.767052
 O         0.702142         0.233382         1.791132
 C        -1.037311         0.323166        -1.416993
 O        -1.698825         1.100693        -2.425897
 H         0.403600         2.951047         0.641432
 H         0.080519         2.952267        -1.060373
 H        -1.126415         3.273202         0.123623
 H        -2.426777         0.802788         1.464476
 H        -2.934399         1.467545        -0.275693
 H        -2.903132        -1.168528        -0.800322
 H        -0.878565        -1.735342         1.270380
 H        -0.348980        -1.799565        -0.448321
 H        -0.243723        -0.316356        -1.857794
 H        -0.976676         1.792352        -2.726107
