19
Iteration:  1631
 C        -0.357405         2.650720         0.297608
 C        -0.865220         1.194332         0.168160
 C        -2.322372         0.804522         0.577480
 C        -2.053521        -0.434919        -0.317293
 C        -0.834714        -1.159302         0.516941
 C         0.096515         0.081052         0.617765
 O         1.276855         0.200709         0.666250
 C        -1.191837         0.420857        -1.248647
 O        -1.888958         1.118649        -2.379051
 H         0.167877         2.747593         1.345618
 H         0.410900         2.734029        -0.497003
 H        -1.209953         3.191877         0.147116
 H        -2.765020         0.840520         1.650076
 H        -2.895995         1.516398        -0.078925
 H        -2.817133        -1.034259        -0.805691
 H        -1.198426        -1.455558         1.556976
 H        -0.342379        -2.148283         0.168383
 H        -0.281534        -0.123829        -1.715597
 H        -1.401826         1.943022        -2.403794
