19
Iteration:  4204
 C        -0.335163         2.563997        -0.028421
 C        -0.886037         1.185741         0.076665
 C        -2.375996         0.845370         0.198257
 C        -1.940046        -0.502249        -0.522334
 C        -0.906977        -1.158672         0.510086
 C        -0.153350         0.096914         0.834712
 O         0.905749         0.346934         1.419425
 C        -0.948141         0.360861        -1.336270
 O        -1.565015         1.103611        -2.313511
 H         0.683275         2.535491        -0.377662
 H        -0.847975         3.492947        -0.359508
 H        -0.146707         2.789256         1.150325
 H        -2.927989         0.734720         1.093939
 H        -2.912718         1.433987        -0.597504
 H        -2.570048        -1.086799        -1.149350
 H        -1.264947        -1.371344         1.521702
 H        -0.348677        -2.010561         0.132899
 H         0.044455         0.053590        -1.562265
 H        -1.089079         1.527568        -3.003154
