19
Iteration:  3165
 C        -0.166670         2.567333        -0.079706
 C        -0.700945         1.192436        -0.106962
 C        -2.200882         0.672537         0.296714
 C        -1.812364        -0.541499        -0.571774
 C        -0.756740        -1.125702         0.403156
 C        -0.105801         0.154753         0.859493
 O         0.573063         0.417727         1.835368
 C        -1.086304         0.435935        -1.502572
 O        -1.829041         1.150818        -2.327049
 H         0.769539         2.378194        -0.676333
 H        -0.772751         3.315849        -0.578237
 H         0.203770         2.904856         1.028881
 H        -2.262166         0.180638         1.250692
 H        -3.025571         1.338641        -0.135086
 H        -2.534651        -1.360554        -0.861070
 H        -1.222556        -1.783528         1.119146
 H         0.001184        -1.641775        -0.170179
 H        -0.277481        -0.100053        -2.164319
 H        -1.319878         1.424521        -3.175883
