19
Iteration:  1871
 C        -0.398008         2.658233         0.100789
 C        -0.915173         1.238356         0.125264
 C        -2.324953         0.788443         0.452322
 C        -1.982526        -0.529461        -0.260551
 C        -0.839107        -1.221051         0.460762
 C        -0.038715         0.138759         0.573987
 O         1.154645         0.166307         0.841151
 C        -1.129635         0.461398        -1.184416
 O        -1.685255         1.208220        -2.186294
 H        -1.000922         3.333754         0.835537
 H         0.623788         2.865523         0.326786
 H        -0.471466         3.146593        -0.852508
 H        -2.625092         0.870907         1.414464
 H        -2.994252         1.264180        -0.216692
 H        -2.874089        -0.993956        -0.691040
 H        -1.198264        -1.579412         1.454326
 H        -0.216006        -2.033499         0.022263
 H        -0.242872         0.053242        -1.634462
 H        -1.441452         0.677563        -3.030060
