19
Iteration:  2320
 C        -0.159528         2.663555        -0.224923
 C        -0.695157         1.210838        -0.137138
 C        -2.213011         0.646215         0.491882
 C        -1.876047        -0.560007        -0.472738
 C        -0.737565        -1.169813         0.338019
 C         0.032752         0.064994         0.718935
 O         0.771577         0.279869         1.667747
 C        -1.158368         0.417222        -1.352227
 O        -1.993471         1.302534        -2.238093
 H        -0.847172         3.426608         0.244989
 H         0.755964         2.874240         0.317137
 H        -0.074164         3.013715        -1.253386
 H        -2.210007         0.434150         1.638278
 H        -3.080416         1.230157         0.134517
 H        -2.714795        -1.283575        -0.780635
 H        -1.007522        -1.792693         1.152566
 H        -0.195753        -1.815280        -0.300788
 H        -0.331899         0.044287        -1.897587
 H        -1.547284         1.291704        -3.124993
