19
Iteration:   146charge 0 multiplicity 1
 C        -0.198331         2.580100         0.005614
 C        -0.691962         1.214250         0.008336
 C        -1.798536         0.695373         1.035802
 C        -1.944214        -0.427745        -0.013685
 C        -0.686176        -1.243920         0.048643
 C         0.295253        -0.029489         0.057341
 O         1.490243        -0.065229         0.090295
 C        -1.598985         0.647895        -1.077050
 O        -2.727992         1.525257        -1.399637
 H        -0.976276         3.188754         0.526848
 H         0.580359         2.569434         0.720391
 H         0.056517         3.143379        -0.927736
 H        -1.461244         0.435956         2.090034
 H        -2.727854         1.322316         0.988057
 H        -2.936079        -0.993925         0.014906
 H        -0.713956        -1.901462         0.843654
 H        -0.471868        -1.710656        -0.946319
 H        -1.073908         0.295284        -1.979030
 H        -3.469307         1.068945        -1.849642
