19
Iteration:  1847
 C        -0.384995         2.601688         0.038230
 C        -0.883130         1.172558         0.074373
 C        -2.368711         0.749571         0.498218
 C        -2.004681        -0.483012        -0.346741
 C        -0.868484        -1.110461         0.528659
 C         0.056135         0.116618         0.665218
 O         1.284932         0.157013         1.019425
 C        -1.200768         0.389946        -1.377480
 O        -1.790784         1.298638        -2.215101
 H        -1.146420         3.329922         0.326872
 H         0.497046         2.916681         0.634497
 H         0.024287         2.944372        -0.927711
 H        -2.474996         0.429668         1.502452
 H        -3.171198         1.350129         0.138930
 H        -2.792773        -1.256330        -0.510820
 H        -1.209475        -1.619993         1.411828
 H        -0.298124        -1.835799         0.015876
 H        -0.379916         0.044702        -1.921021
 H        -1.566105         1.178857        -3.178429
