19
Iteration:  3324
 C        -0.452132         2.623715         0.206147
 C        -0.910165         1.222920         0.029014
 C        -2.455171         0.694135         0.206484
 C        -1.866123        -0.520516        -0.521592
 C        -0.951526        -1.080512         0.629264
 C        -0.131730         0.226944         0.835212
 O         0.971585         0.245169         1.238795
 C        -0.895765         0.472927        -1.317992
 O        -1.387717         1.038954        -2.478063
 H         0.573898         2.814048        -0.114662
 H        -1.162890         3.248243        -0.303360
 H        -0.548215         2.977054         1.184782
 H        -2.825308         0.691023         1.246127
 H        -2.961827         1.383042        -0.487326
 H        -2.503451        -1.351107        -0.934541
 H        -1.699178        -1.265998         1.414526
 H        -0.360781        -1.994179         0.334261
 H         0.028436        -0.054679        -1.522231
 H        -2.387452         1.342047        -2.467041
