19
Iteration:  2665
 C        -0.333953         2.556635         0.063518
 C        -0.862796         1.193508         0.082677
 C        -2.299108         0.724912         0.366926
 C        -1.961360        -0.510518        -0.554230
 C        -0.893246        -1.058111         0.509003
 C        -0.110793         0.173375         0.860637
 O         0.978918         0.298079         1.401103
 C        -1.029850         0.432426        -1.385823
 O        -1.594182         1.073786        -2.512524
 H        -1.238669         3.212613        -0.117835
 H         0.082078         2.884193         1.019802
 H         0.514214         2.804625        -0.643420
 H        -2.373751         0.549451         1.500392
 H        -3.111394         1.344028        -0.064312
 H        -2.575056        -1.167743        -1.127743
 H        -1.420367        -1.537094         1.325350
 H        -0.185077        -1.805163         0.089820
 H        -0.126790        -0.121841        -1.800938
 H        -2.294727         1.751593        -2.384400
