19
Iteration:  4509
 C        -0.291776         2.662003        -0.083685
 C        -0.741727         1.157341        -0.065987
 C        -2.252927         0.782075         0.287540
 C        -1.909279        -0.522210        -0.568775
 C        -0.881371        -1.150770         0.510994
 C        -0.143035         0.128756         0.890665
 O         0.845735         0.308342         1.656861
 C        -0.989143         0.329037        -1.427499
 O        -1.754593         1.172657        -2.376339
 H         0.592452         2.696589         0.469723
 H        -0.085870         2.975514        -1.062980
 H        -0.951190         3.270938         0.557157
 H        -2.318043         0.571673         1.453856
 H        -2.970358         1.596103        -0.203352
 H        -2.493763        -1.195886        -1.242516
 H        -1.611945        -1.573815         1.264846
 H        -0.449119        -2.065636         0.005908
 H        -0.112194        -0.089343        -1.871965
 H        -1.027706         1.497571        -3.035456
