19
Iteration:  3947charge 0 multiplicity 1
 C        -0.200097         2.543380         0.081350
 C        -0.804585         1.220834         0.009731
 C        -2.293119         0.760616         0.174707
 C        -1.896415        -0.497905        -0.511526
 C        -0.855195        -1.086523         0.508240
 C        -0.172052         0.167520         0.843562
 O         0.790184         0.356123         1.538114
 C        -0.965871         0.346152        -1.395717
 O        -1.748291         1.102545        -2.402379
 H         0.810333         2.609991        -0.469469
 H        -0.885326         3.350532        -0.284265
 H        -0.018464         2.679701         1.228508
 H        -2.795114         0.842280         1.097631
 H        -2.819150         1.200187        -0.653404
 H        -2.512076        -1.326751        -1.071263
 H        -1.461655        -1.748280         1.232031
 H        -0.110874        -1.863768         0.173246
 H        -0.041591        -0.167960        -1.798182
 H        -1.073325         1.653842        -2.812454
