19
Iteration:   753
 C        -0.222175         2.647214         0.018033
 C        -0.751059         1.207373         0.169425
 C        -2.098016         0.782102         0.802102
 C        -2.057459        -0.510187         0.016695
 C        -0.884343        -1.197703         0.489903
 C         0.212035         0.018275         0.351194
 O         1.397580         0.060901         0.050561
 C        -1.418127         0.422889        -1.086629
 O        -2.223518         1.429099        -1.836412
 H        -0.227771         3.224643         0.953465
 H         0.816784         2.650812        -0.322334
 H        -0.886722         3.118104        -0.825767
 H        -2.296364         0.669343         1.845622
 H        -2.889953         1.450709         0.427159
 H        -2.908581        -1.164784        -0.227243
 H        -1.017079        -1.430162         1.510822
 H        -0.427826        -2.035485        -0.033822
 H        -0.678098         0.041004        -1.821183
 H        -2.110543         1.210532        -2.752057
