19
Iteration:  1291
 C        -0.181492         2.664549         0.275824
 C        -0.779359         1.286523         0.033453
 C        -2.250400         0.741572         0.641944
 C        -1.981649        -0.477177        -0.252478
 C        -0.803921        -1.143883         0.416999
 C         0.083551         0.122726         0.523125
 O         1.305923         0.160719         0.658706
 C        -1.297773         0.396269        -1.310682
 O        -2.177873         1.160776        -2.112552
 H        -0.352438         3.022199         1.291662
 H         0.908742         2.669574         0.142135
 H        -0.668605         3.434799        -0.408532
 H        -2.456829         0.635963         1.695030
 H        -2.965087         1.350436         0.072850
 H        -2.829378        -1.133427        -0.592874
 H        -0.979116        -1.555993         1.388303
 H        -0.480778        -1.887816        -0.167081
 H        -0.532091        -0.095402        -1.868384
 H        -1.636760         1.340231        -2.914319
