19
Iteration:  3961
 C        -0.125635         2.611750         0.063002
 C        -0.785693         1.177799        -0.066458
 C        -2.368260         0.825155         0.146259
 C        -1.858224        -0.606860        -0.523353
 C        -0.802869        -1.201196         0.482451
 C        -0.123798         0.148874         0.821842
 O         0.731496         0.358384         1.656961
 C        -1.031356         0.408816        -1.414968
 O        -1.770650         1.112243        -2.369662
 H         0.867434         2.582015        -0.264865
 H        -0.616881         3.291103        -0.538927
 H        -0.119757         3.072964         1.071272
 H        -2.741400         0.727722         1.269464
 H        -2.943031         1.496993        -0.469050
 H        -2.707522        -1.266642        -0.969242
 H        -1.115417        -1.515413         1.506024
 H        -0.069767        -1.888741        -0.001694
 H        -0.115899        -0.026969        -1.963707
 H        -1.148822         1.636225        -3.000773
