19
Iteration:  2790charge 0 multiplicity 1
 C        -0.397197         2.635671         0.096903
 C        -0.880121         1.208667         0.079471
 C        -2.323667         0.815284         0.251282
 C        -1.916887        -0.486616        -0.445733
 C        -0.905286        -1.186109         0.464973
 C        -0.104699         0.086930         0.840740
 O         0.951336         0.347550         1.353107
 C        -0.977231         0.284126        -1.341025
 O        -1.523337         1.128329        -2.455484
 H        -0.349537         3.054233         1.086132
 H         0.644458         2.628503        -0.276805
 H        -0.911040         3.279074        -0.560873
 H        -2.848390         1.010019         1.267679
 H        -2.999028         1.527740        -0.357063
 H        -2.627644        -1.141406        -0.945336
 H        -1.309917        -1.599235         1.365412
 H        -0.323186        -1.820197        -0.201719
 H        -0.111216        -0.229054        -1.673744
 H        -2.414161         1.392288        -2.097025
