19
Iteration:  1024
 C        -0.231283         2.654605         0.051464
 C        -0.786840         1.192022         0.044840
 C        -2.148145         0.794953         0.739488
 C        -2.041761        -0.438936        -0.122264
 C        -0.836343        -1.202144         0.537441
 C         0.185410         0.033787         0.506303
 O         1.398956         0.087033         0.326778
 C        -1.384219         0.465425        -1.191584
 O        -2.225330         1.263223        -2.054810
 H         0.325994         2.774242         1.058373
 H         0.546760         2.939163        -0.692780
 H        -1.037322         3.314767         0.057265
 H        -2.249323         0.671857         1.849540
 H        -3.039956         1.298723         0.282576
 H        -2.889688        -1.116291        -0.429822
 H        -1.159022        -1.380601         1.589746
 H        -0.433740        -2.087116         0.168757
 H        -0.637400        -0.100755        -1.796847
 H        -1.759122         2.092843        -1.925884
