19
Iteration:  1797
 C        -0.170711         2.597613        -0.034617
 C        -0.749414         1.230917        -0.121232
 C        -2.192696         0.792041         0.473166
 C        -1.914035        -0.445739        -0.335040
 C        -0.717854        -1.167554         0.298603
 C         0.080004         0.128241         0.630093
 O         1.014872         0.129386         1.410833
 C        -1.157276         0.425604        -1.398504
 O        -2.205801         1.225494        -2.117791
 H        -0.656050         3.436639        -0.661964
 H        -0.126252         2.992234         0.963884
 H         0.873460         2.642286        -0.281532
 H        -2.250730         0.711426         1.603670
 H        -3.034870         1.347184         0.009472
 H        -2.721645        -1.058065        -0.705937
 H        -0.779224        -1.775567         1.251521
 H        -0.181483        -1.855404        -0.452843
 H        -0.493182        -0.072681        -2.177467
 H        -2.195178         1.233608        -3.045511
