19
Iteration:  4496
 C        -0.268338         2.629081        -0.009960
 C        -0.778733         1.217567        -0.033880
 C        -2.243987         0.745842         0.190574
 C        -1.863979        -0.555629        -0.556488
 C        -1.034709        -1.230873         0.500619
 C        -0.115750         0.159217         0.862324
 O         0.842501         0.333094         1.526123
 C        -0.957028         0.426822        -1.378677
 O        -1.687265         1.137316        -2.298668
 H         0.755913         2.739972         0.411496
 H        -0.254844         2.990192        -1.047546
 H        -0.951036         3.365609         0.375677
 H        -2.575618         0.648479         1.323078
 H        -3.079854         1.368339        -0.227235
 H        -2.732277        -1.155035        -0.868288
 H        -1.538304        -1.550672         1.426106
 H        -0.188180        -1.953268         0.305011
 H        -0.072142        -0.016159        -1.860960
 H        -1.174049         1.345286        -3.032278
