19
Iteration:   365charge 0 multiplicity 1
 C         0.134277         2.461308        -0.325678
 C        -0.598982         1.186477        -0.195668
 C        -1.688359         0.641269         0.969951
 C        -2.016468        -0.501600        -0.102501
 C        -0.643300        -1.198134        -0.053230
 C         0.226831         0.036038         0.178254
 O         1.330592         0.119121         0.711453
 C        -1.750146         0.621560        -1.109692
 O        -2.938071         1.440483        -1.418997
 H         0.128674         3.016485         0.601672
 H         1.132473         2.285539        -0.690103
 H        -0.472125         3.037903        -1.063572
 H        -1.315524         0.392198         1.979809
 H        -2.520018         1.346480         1.135818
 H        -2.937069        -1.190644        -0.209492
 H        -0.292775        -1.850058         0.728747
 H        -0.460272        -1.586413        -1.081462
 H        -1.310423         0.393523        -2.080420
 H        -2.695288         2.251041        -1.008671
