19
Iteration:  3746charge 0 multiplicity 1
 C        -0.245544         2.599358        -0.102689
 C        -0.756676         1.224498        -0.051706
 C        -2.138692         0.801969         0.386674
 C        -1.892859        -0.533330        -0.470644
 C        -0.744748        -1.144096         0.389329
 C        -0.090772         0.166094         0.808183
 O         0.605098         0.254249         1.801533
 C        -1.034785         0.442821        -1.450869
 O        -1.742985         1.056626        -2.521000
 H         0.546555         2.709453        -0.903064
 H        -1.120144         3.371761        -0.232117
 H         0.244634         2.938132         0.803201
 H        -2.317810         0.884417         1.410475
 H        -2.857101         1.372144        -0.183530
 H        -2.668488        -1.178077        -0.828507
 H        -1.195077        -1.632877         1.259347
 H        -0.361183        -2.006755        -0.192211
 H        -0.074280        -0.074192        -1.809483
 H        -1.625952         1.961525        -2.572311
