19
Iteration:  1524charge 0 multiplicity 1
 C        -0.259153         2.555980        -0.140000
 C        -0.742367         1.223512        -0.124449
 C        -2.106516         0.709087         0.666291
 C        -1.976253        -0.497379        -0.336683
 C        -0.688678        -1.285518         0.214270
 C         0.053167         0.069384         0.589930
 O         1.087555         0.234465         1.247460
 C        -1.282300         0.436964        -1.354448
 O        -2.071009         1.422893        -1.993529
 H        -1.090658         3.317549        -0.490586
 H        -0.107285         2.935425         0.914243
 H         0.693817         2.651980        -0.673613
 H        -2.078929         0.396037         1.771861
 H        -3.013130         1.243657         0.361063
 H        -2.900649        -1.025548        -0.490272
 H        -0.843582        -1.963881         1.024702
 H        -0.221819        -1.697128        -0.622042
 H        -0.560890         0.187831        -2.135190
 H        -2.589047         0.914189        -2.565151
