19
Iteration:  1880
 C        -0.393908         2.746332         0.134793
 C        -0.888601         1.298842         0.122060
 C        -2.348308         0.816207         0.464147
 C        -1.994799        -0.502563        -0.327961
 C        -0.907590        -1.227192         0.493515
 C        -0.005590         0.033276         0.641820
 O         1.170752         0.218747         0.806920
 C        -1.063209         0.416011        -1.216547
 O        -1.689097         1.163540        -2.194287
 H        -0.894970         3.172343         0.979415
 H         0.674288         2.646049         0.285043
 H        -0.764809         3.080838        -0.818775
 H        -2.678889         0.687264         1.494484
 H        -3.117199         1.341835        -0.082313
 H        -2.780430        -1.207043        -0.661256
 H        -1.146979        -1.661634         1.422867
 H        -0.412116        -1.897505        -0.146776
 H        -0.135696         0.001132        -1.553648
 H        -1.689695         0.767498        -3.140563
