19
Iteration:   110charge 0 multiplicity 1
 C        -0.108790         2.555464        -0.287923
 C        -0.664242         1.150773        -0.046346
 C        -1.714416         0.486529         1.072417
 C        -1.975441        -0.481491        -0.067380
 C        -0.654446        -1.236203        -0.095437
 C         0.314696        -0.001569         0.063852
 O         1.450624         0.052916         0.385898
 C        -1.793949         0.648704        -1.071211
 O        -2.729375         1.679608        -1.326653
 H        -0.859023         3.150663        -0.822671
 H        -0.140311         2.943476         0.708962
 H         0.917408         2.664622        -0.609866
 H        -1.373336         0.077477         1.997351
 H        -2.592375         1.056132         1.337570
 H        -2.866427        -1.090440        -0.024753
 H        -0.536449        -2.046626         0.623103
 H        -0.587380        -1.768071        -1.053342
 H        -1.514620         0.339064        -2.034301
 H        -3.304419         1.511027        -0.568986
