19
Iteration:  1812
 C        -0.263213         2.609888        -0.023964
 C        -0.748826         1.192586        -0.038270
 C        -2.145040         0.832152         0.481368
 C        -1.899495        -0.503902        -0.377462
 C        -0.783775        -1.194432         0.403837
 C         0.032428         0.033731         0.543462
 O         1.023753         0.187652         1.258503
 C        -1.164317         0.512935        -1.375659
 O        -2.073089         1.220314        -2.083275
 H        -1.063081         3.164535        -0.405786
 H        -0.063793         2.890602         1.049671
 H         0.583735         2.728888        -0.777260
 H        -2.262473         0.730632         1.616077
 H        -2.953542         1.514247         0.127404
 H        -2.777812        -1.087413        -0.715709
 H        -1.158274        -1.551124         1.320544
 H        -0.262717        -1.943391        -0.131952
 H        -0.277126         0.192599        -1.885822
 H        -1.787165         1.050848        -3.025426
