19
Iteration:  2939
 C        -0.301484         2.611851        -0.021048
 C        -0.855545         1.173525        -0.005992
 C        -2.317054         0.788162         0.278871
 C        -1.925334        -0.495493        -0.508195
 C        -0.705232        -1.167954         0.428446
 C        -0.159822         0.186321         0.824980
 O         0.770175         0.299493         1.551974
 C        -1.019958         0.400715        -1.323607
 O        -1.580471         1.088639        -2.420320
 H         0.618223         2.745483         0.580749
 H         0.109514         2.870253        -1.034264
 H        -1.003010         3.309838         0.419256
 H        -2.608858         0.741848         1.292807
 H        -2.884779         1.472429        -0.278545
 H        -2.738356        -1.164675        -0.803405
 H        -1.135817        -1.829288         1.199572
 H        -0.035487        -1.712007        -0.285240
 H         0.000256         0.022164        -1.783484
 H        -2.418203         1.380362        -2.160695
