19
Iteration:  4759charge 0 multiplicity 1
 C        -0.239069         2.636678         0.134858
 C        -0.812839         1.267901         0.034430
 C        -2.452289         0.767188         0.177350
 C        -1.803492        -0.537871        -0.598609
 C        -0.986775        -1.110830         0.618835
 C        -0.110955         0.106245         0.807194
 O         0.909817         0.321713         1.422152
 C        -0.923378         0.442479        -1.367150
 O        -1.710461         1.006007        -2.401208
 H         0.824685         2.494806         0.550790
 H        -0.148192         3.055301        -0.945483
 H        -0.813078         3.325137         0.936190
 H        -2.919625         0.599444         1.201103
 H        -3.054725         1.357625        -0.608924
 H        -2.491550        -1.273281        -1.076184
 H        -1.767695        -1.217539         1.353106
 H        -0.389091        -2.048754         0.469465
 H         0.031083         0.044040        -1.748336
 H        -0.992829         1.568859        -2.817879
