19
Iteration:  4747
 C        -0.227856         2.572000         0.171452
 C        -0.912271         1.234260        -0.022292
 C        -2.428443         0.733999         0.141586
 C        -1.802169        -0.563749        -0.543560
 C        -1.006871        -1.026001         0.648070
 C        -0.149575         0.259240         0.825839
 O         0.943751         0.247443         1.336170
 C        -0.910140         0.408585        -1.328675
 O        -1.652615         1.019026        -2.395930
 H         0.865436         2.450506         0.481038
 H        -0.374270         3.382015        -0.625099
 H        -0.823378         3.052791         1.061606
 H        -3.045457         0.791285         1.108139
 H        -3.066350         1.327808        -0.639524
 H        -2.353680        -1.303229        -1.226300
 H        -1.582119        -1.186246         1.534770
 H        -0.403454        -1.941364         0.528815
 H         0.038631         0.040993        -1.704341
 H        -1.140014         1.708715        -2.943149
