19
Iteration:   254charge 0 multiplicity 1
 C        -0.270143         2.544451         0.018078
 C        -0.757909         1.187083         0.135283
 C        -1.881190         0.732508         1.090870
 C        -2.050799        -0.415602         0.010929
 C        -0.729657        -1.203793         0.244839
 C         0.279499         0.038760         0.166604
 O         1.504735        -0.057310        -0.144331
 C        -1.572094         0.574432        -1.067923
 O        -2.469811         1.508461        -1.598844
 H         0.651798         2.625932        -0.595049
 H        -0.980490         3.213744        -0.294184
 H         0.030367         2.926852         1.050657
 H        -1.632963         0.542981         2.124606
 H        -2.730075         1.409328         0.906765
 H        -3.040802        -1.014493        -0.032373
 H        -0.641166        -1.757650         1.126466
 H        -0.517137        -1.994443        -0.556284
 H        -0.998504         0.203947        -1.888151
 H        -3.380947         1.148060        -1.834279
