19
Iteration:  1345charge 0 multiplicity 1
 C        -0.432194         2.709270         0.254229
 C        -0.888648         1.268788         0.142566
 C        -2.268716         0.772306         0.673189
 C        -2.005790        -0.496372        -0.293892
 C        -0.847475        -1.146819         0.592923
 C         0.123926         0.055471         0.526779
 O         1.358014         0.032773         0.438048
 C        -1.197804         0.419643        -1.246510
 O        -1.869345         1.249452        -2.215449
 H         0.291236         2.869593         1.011239
 H        -0.067229         3.120412        -0.703629
 H        -1.318963         3.415422         0.399024
 H        -2.459583         0.633065         1.777121
 H        -3.018603         1.473679         0.261347
 H        -2.863516        -1.127421        -0.708577
 H        -1.115748        -1.257175         1.622751
 H        -0.435042        -2.016949         0.296752
 H        -0.281098         0.227772        -1.772571
 H        -2.805766         1.164355        -2.235008
