19
Iteration:  3022
 C        -0.382012         2.748290         0.129234
 C        -0.897730         1.263210         0.128757
 C        -2.483567         0.797431         0.169067
 C        -1.941593        -0.534076        -0.498936
 C        -0.950238        -1.138301         0.584195
 C        -0.128964         0.151794         0.808723
 O         1.013779         0.250669         1.239753
 C        -0.969550         0.417693        -1.225937
 O        -1.366616         0.986597        -2.468219
 H         0.701294         2.758471        -0.066300
 H        -1.060577         3.361126        -0.460213
 H        -0.553165         3.192895         1.184750
 H        -2.938638         0.833235         1.231444
 H        -3.195064         1.145959        -0.725818
 H        -2.601371        -1.255389        -1.115601
 H        -1.356365        -1.481613         1.558359
 H        -0.314627        -1.939175         0.233535
 H        -0.102338        -0.127260        -1.463114
 H        -2.345730         1.253458        -2.538368
