19
Iteration:  4903charge 0 multiplicity 1
 C        -0.193759         2.555295         0.094635
 C        -0.785916         1.164798        -0.058456
 C        -2.282180         0.764211         0.276818
 C        -1.885266        -0.486498        -0.496648
 C        -0.857681        -1.102287         0.399748
 C        -0.097844         0.153890         0.801467
 O         0.847662         0.372883         1.595811
 C        -1.043050         0.400768        -1.425646
 O        -1.828754         1.043411        -2.415084
 H        -0.820790         3.082083         0.859111
 H         0.760449         2.354893         0.625921
 H        -0.105039         3.230211        -0.830081
 H        -2.425514         0.721733         1.452041
 H        -3.035388         1.329964        -0.249115
 H        -2.590284        -1.042672        -0.970861
 H        -1.363881        -1.598261         1.241412
 H        -0.133263        -1.746289        -0.125042
 H        -0.108424         0.047236        -1.804038
 H        -1.216439         1.569953        -2.859941
