19
Iteration:    97
 C        -0.133604         2.535450        -0.283531
 C        -0.679796         1.134295        -0.167567
 C        -1.673493         0.511061         1.068867
 C        -2.003528        -0.529957        -0.050224
 C        -0.622551        -1.273369        -0.185860
 C         0.275295        -0.031348         0.105792
 O         1.445958         0.075388         0.457654
 C        -1.754023         0.691057        -1.081111
 O        -2.804785         1.659246        -1.247336
 H        -0.341555         2.996029        -1.241396
 H        -0.352325         3.280487         0.570665
 H         0.923321         2.296869        -0.285584
 H        -1.218375         0.204959         1.981603
 H        -2.390254         1.283582         1.207254
 H        -2.902599        -1.094587        -0.110031
 H        -0.443865        -2.055678         0.675356
 H        -0.334618        -1.640571        -1.161132
 H        -1.367538         0.424175        -2.065792
 H        -3.216296         2.121639        -0.490210
