19
Iteration:  1861
 C        -0.406113         2.601992         0.060384
 C        -0.902167         1.207254         0.099205
 C        -2.348478         0.772384         0.492823
 C        -2.011210        -0.550013        -0.287154
 C        -0.784130        -1.104023         0.474217
 C         0.023758         0.147357         0.631097
 O         1.171894         0.122536         0.905783
 C        -1.152013         0.408742        -1.227522
 O        -1.747796         1.308305        -2.239312
 H        -1.159110         3.406437         0.556952
 H         0.528903         2.585373         0.621013
 H        -0.333749         2.963075        -0.963697
 H        -2.657018         0.865947         1.489213
 H        -2.998400         1.407338        -0.088449
 H        -2.731741        -1.216000        -0.779738
 H        -1.064427        -1.388403         1.568170
 H        -0.205046        -1.977519        -0.022169
 H        -0.276526        -0.205475        -1.562184
 H        -1.393758         0.877766        -3.075700
