19
Iteration:  3656
 C        -0.337330         2.688127         0.068704
 C        -0.865312         1.209877        -0.035109
 C        -2.283003         0.736599         0.219644
 C        -1.905826        -0.487511        -0.563982
 C        -0.911155        -1.069497         0.558481
 C        -0.097578         0.140940         0.767076
 O         0.923842         0.245156         1.529726
 C        -1.018574         0.378058        -1.350759
 O        -1.633768         1.099722        -2.388518
 H         0.676631         2.668569         0.484784
 H        -0.505126         3.328026        -0.777249
 H        -1.062499         3.150338         0.932894
 H        -2.335793         0.725791         1.272245
 H        -2.969208         1.348357        -0.312187
 H        -2.761523        -1.150359        -1.075565
 H        -1.367837        -1.510293         1.463041
 H        -0.362673        -1.911463         0.059419
 H         0.004482        -0.048250        -1.729556
 H        -1.405265         0.737032        -3.210711
