19
Iteration:   109
 C        -0.112393         2.549317        -0.297354
 C        -0.666790         1.145953        -0.058270
 C        -1.708713         0.481333         1.071161
 C        -1.975773        -0.480481        -0.064185
 C        -0.654434        -1.239709        -0.104354
 C         0.308922        -0.002747         0.070655
 O         1.452802         0.056043         0.392809
 C        -1.796746         0.656956        -1.061992
 O        -2.732519         1.679704        -1.324404
 H        -0.795863         3.184108        -0.870778
 H        -0.159298         2.969996         0.744294
 H         0.915429         2.659667        -0.579808
 H        -1.383473         0.090580         1.995368
 H        -2.577775         1.053816         1.315919
 H        -2.847447        -1.086955        -0.043019
 H        -0.507334        -2.083075         0.657514
 H        -0.586052        -1.752891        -1.062804
 H        -1.527443         0.367889        -2.048394
 H        -3.261049         1.521070        -0.553909
