19
Iteration:   621
 C         0.037664         2.420857        -0.403308
 C        -0.707078         1.182537        -0.159248
 C        -1.814104         0.667785         0.964736
 C        -1.964870        -0.502333        -0.139290
 C        -0.585046        -1.228173        -0.017766
 C         0.187849         0.021373         0.252091
 O         1.178816         0.140463         0.908912
 C        -1.568393         0.598222        -1.252175
 O        -2.678542         1.563773        -1.451333
 H         1.093154         2.260997        -0.684633
 H        -0.547545         3.000344        -1.150410
 H        -0.005461         3.032867         0.469687
 H        -1.326607         0.379071         1.977744
 H        -2.641569         1.393709         1.146873
 H        -2.932380        -0.963723        -0.222393
 H        -0.447326        -1.870120         0.836495
 H        -0.264403        -1.784000        -0.887819
 H        -1.242220         0.255733        -2.296146
 H        -3.210974         1.127902        -2.111117
