19
Iteration:  3928
 C        -0.288036         2.623602         0.111866
 C        -0.882401         1.204703        -0.030021
 C        -2.377389         0.820662         0.170861
 C        -1.954145        -0.505410        -0.568205
 C        -0.966065        -1.167222         0.533779
 C        -0.119455         0.173315         0.852166
 O         0.916696         0.323220         1.485092
 C        -0.918358         0.419511        -1.401220
 O        -1.590434         0.993699        -2.380237
 H         0.452394         2.821088        -0.590484
 H        -1.022401         3.302769        -0.063181
 H         0.155725         2.741127         1.115465
 H        -2.618540         0.629951         1.323823
 H        -3.109899         1.578061        -0.065848
 H        -2.529716        -1.296097        -1.206048
 H        -1.443465        -1.422531         1.512355
 H        -0.362500        -2.000906         0.100818
 H         0.085749        -0.064853        -1.675165
 H        -1.233041         1.819820        -2.829187
