19
Iteration:  2902charge 0 multiplicity 1
 C        -0.136490         2.638133        -0.042758
 C        -0.725221         1.241100        -0.097586
 C        -2.311891         0.625077         0.371423
 C        -1.860822        -0.526860        -0.543586
 C        -0.783527        -1.260638         0.469031
 C        -0.057877         0.083160         0.813065
 O         0.679451         0.409549         1.710777
 C        -1.045129         0.516146        -1.441142
 O        -1.728954         1.131477        -2.517734
 H         0.588829         2.480949         0.707737
 H         0.171459         3.043701        -0.946162
 H        -0.858400         3.396181         0.296811
 H        -2.648722         0.629578         1.421538
 H        -3.084904         1.334382        -0.082844
 H        -2.784986        -1.171787        -0.859241
 H        -1.241472        -1.750243         1.354822
 H        -0.111609        -2.034174         0.067062
 H        -0.126590         0.137426        -1.845272
 H        -2.534265         1.500360        -2.214223
