19
Iteration:  3465charge 0 multiplicity 1
 C        -0.222248         2.611199        -0.083097
 C        -0.709619         1.191858        -0.110224
 C        -2.304418         0.738283         0.238666
 C        -1.868040        -0.604394        -0.518928
 C        -0.759384        -1.141791         0.364801
 C        -0.077146         0.150057         0.784851
 O         0.639717         0.360606         1.807803
 C        -0.957095         0.423715        -1.405845
 O        -1.728413         1.210333        -2.339223
 H         0.902271         2.525675        -0.111204
 H        -0.700250         3.357707        -0.838543
 H        -0.505216         2.880090         0.950472
 H        -2.592021         0.555685         1.275066
 H        -3.108255         1.114461        -0.328248
 H        -2.590327        -1.272908        -0.926020
 H        -0.977396        -1.741365         1.221710
 H        -0.039486        -1.619064        -0.264690
 H        -0.029381        -0.101160        -1.882101
 H        -2.642619         0.763150        -2.492877
