19
Iteration:  2163charge 0 multiplicity 1
 C        -0.460093         2.663919         0.075437
 C        -0.925443         1.233642         0.071406
 C        -2.341296         0.777739         0.496837
 C        -1.896691        -0.579599        -0.370320
 C        -0.915143        -1.173137         0.641478
 C        -0.022091         0.060780         0.684111
 O         1.170306         0.150949         0.920294
 C        -1.056663         0.445297        -1.285560
 O        -1.680306         1.261649        -2.340762
 H        -0.132347         3.139346        -0.820486
 H        -1.351548         3.328807         0.374021
 H         0.285422         2.871013         0.924489
 H        -2.503547         0.771231         1.571039
 H        -3.151783         1.328386         0.011560
 H        -2.743547        -0.944277        -0.955830
 H        -1.602751        -1.198293         1.492978
 H        -0.485936        -2.161685         0.436911
 H        -0.061507         0.089005        -1.545656
 H        -1.147718         1.040597        -3.203757
