19
Iteration:  1459
 C        -0.027051         2.696041        -0.107232
 C        -0.631619         1.168019        -0.084042
 C        -2.028215         0.775603         0.542603
 C        -1.873377        -0.513296        -0.409144
 C        -0.667454        -1.270244         0.108603
 C         0.141648         0.079772         0.564228
 O         0.977447         0.185121         1.427789
 C        -1.333568         0.542923        -1.383334
 O        -2.485322         1.236051        -1.885409
 H         0.521969         2.665722        -1.140297
 H        -0.770281         3.561521        -0.038438
 H         0.686845         2.787985         0.723016
 H        -2.047687         0.559680         1.644180
 H        -2.853493         1.336698         0.108571
 H        -2.810214        -0.966513        -0.630942
 H        -0.880395        -1.972266         0.914807
 H        -0.120041        -1.882080        -0.635714
 H        -0.546060         0.157817        -2.166874
 H        -2.509188         1.281526        -2.886978
