19
Iteration:  2277charge 0 multiplicity 1
 C        -0.156216         2.528075        -0.108794
 C        -0.740535         1.159637        -0.077153
 C        -2.200944         0.819677         0.363663
 C        -1.842732        -0.495214        -0.382749
 C        -0.690617        -1.209755         0.284985
 C         0.037597         0.086643         0.714886
 O         0.819152         0.298051         1.619755
 C        -1.120611         0.555161        -1.385232
 O        -2.076237         1.112723        -2.240689
 H        -1.028292         3.168597        -0.345421
 H         0.256962         2.730803         0.857966
 H         0.550758         2.414995        -0.891586
 H        -2.501798         0.910073         1.568776
 H        -2.998513         1.433212        -0.170363
 H        -2.623673        -1.199597        -0.836456
 H        -1.037112        -1.768221         1.123516
 H        -0.140014        -1.847979        -0.371419
 H        -0.371892         0.159932        -2.094367
 H        -1.907474         2.105572        -2.477101
