19
Iteration:  3771charge 0 multiplicity 1
 C        -0.278995         2.693872        -0.034589
 C        -0.652564         1.222628        -0.112229
 C        -2.269863         0.772583         0.290663
 C        -1.946916        -0.439445        -0.529009
 C        -0.852817        -1.165815         0.455167
 C        -0.051919         0.179244         0.808936
 O         0.689330         0.282013         1.766427
 C        -0.972042         0.339464        -1.463523
 O        -1.736225         0.998445        -2.423359
 H         0.392506         3.078028        -0.803659
 H        -1.079919         3.407090         0.203542
 H         0.294996         2.699873         0.810826
 H        -2.424852         0.623285         1.448511
 H        -2.886013         1.674123        -0.110315
 H        -2.710545        -0.989463        -1.021373
 H        -1.229218        -1.953529         1.137278
 H        -0.289360        -1.759121        -0.310408
 H        -0.144630        -0.320423        -1.855992
 H        -1.353862         1.829690        -2.632695
