19
Iteration:  4015
 C        -0.215599         2.702454        -0.176839
 C        -0.753583         1.209323        -0.135292
 C        -2.173113         0.806833         0.322501
 C        -1.839991        -0.479222        -0.449296
 C        -0.798557        -1.196570         0.320500
 C        -0.026918         0.095684         0.852982
 O         0.594836         0.226277         1.880431
 C        -1.018360         0.413318        -1.426142
 O        -1.815935         1.085744        -2.399173
 H         0.780849         2.851976         0.220809
 H        -0.268954         3.206905        -1.110591
 H        -0.891091         3.351242         0.485181
 H        -2.254932         0.741181         1.408948
 H        -2.844976         1.390433        -0.217252
 H        -2.668562        -1.099781        -0.927898
 H        -1.075489        -1.822242         1.206144
 H        -0.220120        -1.899063        -0.353063
 H        -0.234507        -0.228536        -1.918593
 H        -1.359132         1.900695        -2.846456
