19
Iteration:  4909charge 0 multiplicity 1
 C        -0.225881         2.587422         0.109968
 C        -0.763767         1.214009        -0.045028
 C        -2.277578         0.776763         0.333399
 C        -1.886544        -0.466631        -0.513182
 C        -0.882394        -1.101269         0.365412
 C        -0.130720         0.152355         0.750425
 O         0.870355         0.351973         1.562937
 C        -1.037451         0.361388        -1.345972
 O        -1.790082         1.015377        -2.429785
 H        -0.930355         3.105860         0.735900
 H         0.732731         2.591543         0.637347
 H        -0.087334         3.190609        -0.716200
 H        -2.469287         0.594196         1.355543
 H        -3.107386         1.376993        -0.163895
 H        -2.789702        -1.156962        -0.963542
 H        -1.343844        -1.613698         1.209914
 H        -0.132533        -1.859477         0.062355
 H        -0.085051         0.016586        -1.902101
 H        -1.101118         1.599980        -2.912706
