19
Iteration:  1519
 C        -0.239634         2.606336        -0.144292
 C        -0.719800         1.154863        -0.131093
 C        -2.115037         0.726620         0.665077
 C        -1.974882        -0.517054        -0.341533
 C        -0.672354        -1.294261         0.187341
 C         0.111207         0.018695         0.586843
 O         1.059735         0.254269         1.295670
 C        -1.324503         0.479364        -1.335535
 O        -2.108898         1.433235        -1.992182
 H        -0.860558         3.267638        -0.666226
 H        -0.190522         3.083226         0.820889
 H         0.733863         2.700667        -0.648263
 H        -1.999244         0.515467         1.708163
 H        -3.040912         1.320963         0.484198
 H        -2.892918        -1.115871        -0.615943
 H        -0.893133        -2.006446         1.031691
 H        -0.130520        -1.745704        -0.745598
 H        -0.557568         0.043734        -2.036710
 H        -2.637173         0.864367        -2.688910
