19
Iteration:  2584charge 0 multiplicity 1
 C        -0.155165         2.682935        -0.085691
 C        -0.737455         1.221020         0.003077
 C        -2.198450         0.695509         0.442056
 C        -1.903173        -0.479303        -0.478091
 C        -0.717141        -1.191518         0.322198
 C        -0.023761         0.140792         0.781892
 O         0.726612         0.264394         1.710957
 C        -1.158256         0.482294        -1.409505
 O        -1.820511         1.085326        -2.479016
 H        -0.037474         2.952286        -1.140715
 H        -0.831984         3.474524         0.347554
 H         0.882401         2.764532         0.293750
 H        -2.591586         0.537967         1.345746
 H        -2.750473         1.444588        -0.004630
 H        -2.640811        -1.200516        -1.004656
 H        -1.138089        -1.611858         1.268052
 H        -0.227402        -2.050626        -0.146074
 H        -0.183020         0.227656        -1.932596
 H        -2.735881         1.256926        -2.309523
