19
Iteration:  4334charge 0 multiplicity 1
 C        -0.162677         2.588923        -0.058718
 C        -0.822379         1.166767        -0.061956
 C        -2.224621         0.692947         0.219112
 C        -1.862510        -0.530903        -0.551607
 C        -0.916572        -1.187450         0.479974
 C        -0.134049         0.118954         0.831390
 O         0.745043         0.410016         1.681428
 C        -0.981920         0.386996        -1.422012
 O        -1.773594         1.198915        -2.342240
 H         0.838695         2.377208        -0.454219
 H        -0.693801         3.326789        -0.701353
 H        -0.165373         3.068463         1.047178
 H        -2.425079         0.644844         1.316851
 H        -2.997237         1.316281        -0.189523
 H        -2.563736        -1.318552        -0.718816
 H        -1.536692        -1.672544         1.290314
 H        -0.197661        -1.939448         0.002202
 H         0.066081         0.089864        -1.857381
 H        -1.098607         1.547483        -3.055427
