19
Iteration:  2973charge 0 multiplicity 1
 C        -0.465807         2.734305         0.069882
 C        -0.845209         1.181738        -0.002251
 C        -2.325523         0.770203         0.194878
 C        -1.971547        -0.504837        -0.500728
 C        -0.876897        -1.131164         0.522201
 C        -0.057347         0.173516         0.810290
 O         0.989684         0.224037         1.502421
 C        -1.029749         0.331102        -1.366394
 O        -1.485973         1.086926        -2.461455
 H         0.492579         2.830717         0.639755
 H        -0.524685         3.222285        -0.964072
 H        -1.253792         3.319060         0.517153
 H        -2.753056         0.617961         1.194770
 H        -2.845193         1.535302        -0.279925
 H        -2.718442        -1.141977        -0.881000
 H        -1.464105        -1.424482         1.419602
 H        -0.368857        -2.091494         0.227896
 H        -0.028068        -0.153975        -1.730762
 H        -2.189601         1.659941        -2.205661
