19
Iteration:  1190
 C        -0.065904         2.638140        -0.344110
 C        -0.569244         1.208731        -0.151042
 C        -1.923198         0.699683         0.705244
 C        -1.966279        -0.542818        -0.239372
 C        -0.587019        -1.283224         0.084994
 C         0.147679         0.038829         0.473342
 O         0.975444         0.169972         1.364911
 C        -1.427013         0.527008        -1.298788
 O        -2.518629         1.397009        -1.802487
 H        -0.732922         3.182672        -1.010561
 H         0.066156         3.208057         0.593091
 H         0.947533         2.581558        -0.895342
 H        -1.863978         0.580149         1.820106
 H        -2.630167         1.502029         0.550823
 H        -2.880283        -1.147177        -0.597803
 H        -0.614937        -2.072631         0.762019
 H        -0.115469        -1.620822        -0.721159
 H        -0.942553         0.018003        -2.092576
 H        -2.342902         1.277290        -2.818556
