19
Iteration:  4997
 C        -0.365175         2.640364         0.090533
 C        -0.824916         1.219033         0.024280
 C        -2.430203         0.790509         0.222101
 C        -1.931682        -0.548667        -0.539161
 C        -1.016144        -1.115977         0.691495
 C        -0.154265         0.075649         0.814641
 O         1.027805         0.266682         1.091293
 C        -0.907867         0.393438        -1.220950
 O        -1.594085         1.143031        -2.305190
 H        -1.242383         3.254732         0.335777
 H         0.359314         2.684942         0.947285
 H         0.080675         3.066494        -0.793609
 H        -2.803640         0.779698         1.123569
 H        -3.100349         1.367231        -0.441421
 H        -2.637584        -1.283779        -1.194766
 H        -1.593014        -1.299576         1.624711
 H        -0.288855        -1.930443         0.464152
 H         0.063828        -0.057979        -1.581406
 H        -0.687021         1.422279        -2.731931
