19
Iteration:  3727
 C        -0.157261         2.635249        -0.125015
 C        -0.780912         1.210270        -0.145771
 C        -2.288473         0.832352         0.330253
 C        -1.866523        -0.487122        -0.458826
 C        -0.779242        -1.197620         0.394187
 C        -0.091460         0.042995         0.820388
 O         0.626433         0.338690         1.754424
 C        -0.983748         0.414029        -1.386769
 O        -1.765877         1.087795        -2.408130
 H         0.743915         2.615829        -0.742628
 H        -0.897954         3.317859        -0.582992
 H         0.039302         2.940283         0.832635
 H        -2.581802         0.409704         1.386231
 H        -3.205946         1.255626        -0.238874
 H        -2.537206        -1.094455        -0.954211
 H        -0.984805        -1.827295         1.277580
 H         0.041331        -1.741295        -0.137416
 H        -0.090761        -0.024473        -1.862556
 H        -1.411357         1.935566        -2.318519
