19
Iteration:  2996charge 0 multiplicity 1
 C        -0.492374         2.694962         0.116327
 C        -0.899312         1.198193         0.006795
 C        -2.336143         0.769752         0.355983
 C        -1.851113        -0.493778        -0.527267
 C        -1.037087        -1.039564         0.616394
 C        -0.133362         0.147958         0.801683
 O         0.946337         0.207479         1.303406
 C        -0.832290         0.413937        -1.361455
 O        -1.446826         1.006058        -2.506026
 H         0.611038         2.701031         0.393270
 H        -0.846500         3.219000        -0.863020
 H        -1.093189         3.309641         0.794945
 H        -2.497422         0.775186         1.443849
 H        -3.120809         1.254088        -0.166723
 H        -2.511088        -1.191868        -0.912828
 H        -1.698885        -1.546075         1.334690
 H        -0.337869        -1.866629         0.287085
 H         0.197852        -0.007618        -1.726734
 H        -2.175230         1.645363        -2.123675
