19
Iteration:  2326
 C        -0.200564         2.646747        -0.210190
 C        -0.693012         1.183951        -0.091060
 C        -2.211836         0.684953         0.524973
 C        -1.866250        -0.556945        -0.490434
 C        -0.719020        -1.209284         0.372461
 C         0.044661         0.093427         0.694588
 O         0.758994         0.283560         1.644485
 C        -1.146076         0.443397        -1.374681
 O        -1.986921         1.308550        -2.266603
 H        -0.919184         3.248491         0.332760
 H         0.799490         2.628962         0.287331
 H        -0.125120         2.909904        -1.295757
 H        -2.293468         0.485909         1.551177
 H        -3.040103         1.359337         0.261994
 H        -2.712956        -1.123297        -0.829343
 H        -1.043949        -1.739606         1.329046
 H        -0.119118        -1.938021        -0.301390
 H        -0.276232         0.095934        -2.045198
 H        -1.603332         1.183829        -3.099555
