19
Iteration:  2714
 C        -0.502433         2.631821         0.253673
 C        -0.875660         1.267368         0.051844
 C        -2.389849         0.880139         0.259950
 C        -1.946052        -0.459728        -0.422533
 C        -0.934741        -1.081161         0.516921
 C        -0.037483         0.133846         0.754665
 O         1.082406         0.220750         1.223409
 C        -0.988824         0.382515        -1.297392
 O        -1.470946         0.972578        -2.479263
 H        -1.342615         3.269771         0.455695
 H         0.304360         2.830910         0.994288
 H        -0.034656         3.012823        -0.629456
 H        -2.901402         0.773751         1.286453
 H        -2.932173         1.535348        -0.522449
 H        -2.761448        -1.163177        -0.794678
 H        -1.515046        -1.516854         1.382575
 H        -0.402000        -1.908368         0.010450
 H        -0.142088        -0.184774        -1.659986
 H        -2.409558         1.208708        -2.511924
