19
Iteration:  4978charge 0 multiplicity 1
 C        -0.461208         2.741166         0.099366
 C        -0.929987         1.243953         0.114972
 C        -2.331622         0.812547         0.180431
 C        -1.906673        -0.504259        -0.438759
 C        -1.065795        -1.125633         0.591592
 C        -0.072529         0.162586         0.762684
 O         1.071780         0.159700         1.149807
 C        -0.910788         0.326031        -1.310364
 O        -1.538499         1.098368        -2.273124
 H        -1.329124         3.336097         0.199655
 H         0.295339         2.888078         0.782051
 H        -0.090647         2.887515        -0.884371
 H        -2.862563         0.607465         1.239090
 H        -2.993967         1.393607        -0.421411
 H        -2.719233        -1.201326        -0.864706
 H        -1.626901        -1.288012         1.474179
 H        -0.605485        -2.079063         0.334145
 H         0.054367        -0.235452        -1.618313
 H        -0.975032         1.694234        -2.936528
