19
Iteration:  3462charge 0 multiplicity 1
 C        -0.226028         2.620406        -0.083733
 C        -0.677057         1.154921        -0.099904
 C        -2.293170         0.748665         0.251638
 C        -1.863689        -0.624380        -0.537475
 C        -0.777765        -1.151300         0.362634
 C        -0.084704         0.170252         0.793496
 O         0.636715         0.371371         1.804288
 C        -0.968315         0.409508        -1.405949
 O        -1.738602         1.221035        -2.343398
 H         0.897214         2.512924        -0.126603
 H        -0.687384         3.325540        -0.881358
 H        -0.474107         2.935070         0.925224
 H        -2.735221         0.494287         1.248784
 H        -3.081030         1.204701        -0.359234
 H        -2.535091        -1.295149        -0.930096
 H        -0.920644        -1.789185         1.231194
 H         0.008947        -1.611166        -0.257514
 H        -0.059393        -0.005198        -1.849563
 H        -2.572650         0.836516        -2.400136
