19
Iteration:   188charge 0 multiplicity 1
 C        -0.028101         2.530810         0.271159
 C        -0.686323         1.192277         0.129796
 C        -1.908203         0.731309         1.061212
 C        -1.979750        -0.408514         0.015972
 C        -0.701632        -1.128131         0.262617
 C         0.276708         0.044516         0.092388
 O         1.426917         0.017412        -0.232144
 C        -1.648735         0.563265        -1.181581
 O        -2.722448         1.331131        -1.604100
 H         0.043418         2.674508         1.363022
 H         0.903332         2.570099        -0.141104
 H        -0.760492         3.257899        -0.172557
 H        -1.688099         0.450027         2.083577
 H        -2.793223         1.366237         0.932943
 H        -2.923982        -1.013883        -0.080176
 H        -0.678403        -1.510987         1.238408
 H        -0.478479        -1.999037        -0.438177
 H        -1.029236         0.254755        -1.976672
 H        -2.238721         2.076715        -1.953948
