19
Iteration:  2052charge 0 multiplicity 1
 C        -0.150882         2.689469        -0.061389
 C        -0.661419         1.167157        -0.164081
 C        -2.143961         0.727770         0.436557
 C        -1.836763        -0.529696        -0.418234
 C        -0.657413        -1.229731         0.330917
 C        -0.033004         0.068613         0.646649
 O         0.787793         0.273873         1.506682
 C        -1.182488         0.447305        -1.385040
 O        -2.049949         1.301624        -2.139677
 H         0.903835         2.626717        -0.145822
 H        -0.680105         3.282094        -0.882220
 H        -0.396144         3.051767         0.965064
 H        -2.363377         0.597842         1.500831
 H        -2.853531         1.355444        -0.054630
 H        -2.624756        -1.212609        -0.746888
 H        -1.028494        -1.834736         1.174502
 H         0.018705        -1.919170        -0.263448
 H        -0.552206        -0.075415        -2.092065
 H        -2.717975         0.852111        -2.611648
