19
Iteration:  4231charge 0 multiplicity 1
 C        -0.176737         2.617525        -0.007860
 C        -0.756427         1.197915        -0.085181
 C        -2.311782         0.774170         0.214852
 C        -1.890669        -0.548543        -0.556840
 C        -0.912273        -1.107407         0.516933
 C        -0.134393         0.112767         0.888895
 O         0.806412         0.336502         1.608911
 C        -1.052084         0.357913        -1.414269
 O        -1.718270         1.143708        -2.364965
 H         0.918969         2.704766        -0.118959
 H        -0.626008         3.387196        -0.600534
 H        -0.285947         2.881898         0.967038
 H        -2.656696         0.581767         1.327201
 H        -3.141306         1.248916        -0.394724
 H        -2.468028        -1.391895        -1.089773
 H        -1.333342        -1.655535         1.378289
 H        -0.177266        -1.817712         0.078803
 H        -0.115238        -0.098028        -1.852781
 H        -1.196081         1.639088        -2.936980
