19
Iteration:  4980
 C        -0.448758         2.739106         0.103997
 C        -0.926071         1.227425         0.099513
 C        -2.341636         0.803123         0.171862
 C        -1.905548        -0.509880        -0.435932
 C        -1.059039        -1.143747         0.594678
 C        -0.105098         0.171650         0.754645
 O         1.076186         0.171740         1.142005
 C        -0.915570         0.332552        -1.311622
 O        -1.525202         1.099737        -2.257258
 H        -1.341965         3.356345         0.216775
 H         0.339032         2.938590         0.808982
 H        -0.046645         2.918236        -0.921448
 H        -2.857136         0.632973         1.308204
 H        -2.989845         1.410785        -0.427650
 H        -2.613938        -1.123965        -0.866190
 H        -1.660790        -1.280393         1.497579
 H        -0.659579        -2.131352         0.399774
 H         0.003456        -0.177308        -1.639659
 H        -1.031359         1.677306        -2.929102
