19
Iteration:  4872
 C        -0.087572         2.583993        -0.049394
 C        -0.732498         1.189972        -0.067734
 C        -2.268698         0.755859         0.164035
 C        -1.797654        -0.572662        -0.519118
 C        -0.751355        -1.152993         0.407415
 C        -0.129639         0.126639         0.804846
 O         0.696675         0.358150         1.735989
 C        -1.057067         0.393633        -1.419342
 O        -1.952792         1.135310        -2.283634
 H        -0.256848         3.000532         1.010485
 H         1.072472         2.533003        -0.164638
 H        -0.467660         3.356481        -0.879364
 H        -2.684752         0.885585         1.181020
 H        -2.932577         1.243396        -0.449076
 H        -2.486938        -1.173558        -0.997403
 H        -1.296757        -1.639904         1.315945
 H        -0.027298        -1.885190        -0.065021
 H        -0.125277         0.075809        -1.956373
 H        -1.294961         1.826089        -2.736062
