19
Iteration:  3303
 C        -0.503586         2.672258         0.143077
 C        -1.005957         1.227353         0.151175
 C        -2.422131         0.807468         0.135015
 C        -1.906934        -0.501529        -0.540879
 C        -0.950517        -1.150785         0.634109
 C        -0.106858         0.111625         0.854161
 O         1.024777         0.268572         1.201995
 C        -0.875418         0.379751        -1.275618
 O        -1.372534         1.092198        -2.415165
 H         0.509876         2.712676        -0.225184
 H        -1.095818         3.209670        -0.560472
 H        -0.530587         3.296244         1.004328
 H        -2.890692         0.589400         1.105039
 H        -3.019641         1.450893        -0.578315
 H        -2.592683        -1.153229        -1.204794
 H        -1.496216        -1.435995         1.581335
 H        -0.336659        -2.000889         0.191361
 H         0.128624         0.113167        -1.414939
 H        -2.311951         0.904735        -2.373225
