19
Iteration:  1521
 C        -0.244051         2.580537        -0.145157
 C        -0.726729         1.189299        -0.134146
 C        -2.111302         0.720747         0.667410
 C        -1.976578        -0.508253        -0.341983
 C        -0.676583        -1.296822         0.200239
 C         0.084893         0.037763         0.589518
 O         1.072642         0.247223         1.275805
 C        -1.307072         0.458659        -1.345278
 O        -2.090465         1.429720        -1.991258
 H        -0.970622         3.314264        -0.583704
 H        -0.165759         3.040196         0.864194
 H         0.676198         2.672868        -0.637651
 H        -2.030593         0.451115         1.760339
 H        -3.057435         1.289109         0.423247
 H        -2.907877        -1.074476        -0.555585
 H        -0.876320        -1.978321         1.022871
 H        -0.177915        -1.708959        -0.700265
 H        -0.580024         0.133222        -2.064654
 H        -2.608658         0.868895        -2.630065
