19
Iteration:  1925charge 0 multiplicity 1
 C        -0.377083         2.731284         0.238599
 C        -0.857556         1.235774        -0.012144
 C        -2.362836         0.781456         0.409336
 C        -1.932530        -0.538973        -0.278416
 C        -0.838535        -1.188093         0.583395
 C         0.037789         0.081082         0.541620
 O         1.153333         0.155441         1.063100
 C        -1.075458         0.436305        -1.367427
 O        -1.810817         1.237429        -2.352117
 H         0.064566         2.667111         1.292670
 H         0.415324         2.887505        -0.455515
 H        -1.240417         3.364771         0.082063
 H        -2.449152         0.816699         1.512493
 H        -3.034209         1.445299        -0.086009
 H        -2.655033        -1.238065        -0.732750
 H        -1.159097        -1.187108         1.600937
 H        -0.359410        -2.061307         0.184186
 H        -0.289901         0.049888        -1.966814
 H        -2.363665         0.519404        -2.868090
