19
Iteration:  2600
 C        -0.220946         2.605011        -0.125312
 C        -0.763894         1.199626        -0.034756
 C        -2.279406         0.791978         0.338412
 C        -1.882592        -0.497102        -0.520511
 C        -0.812694        -1.132405         0.316550
 C         0.030505         0.116613         0.829802
 O         0.814405         0.282521         1.763259
 C        -1.023954         0.442971        -1.392443
 O        -1.826191         1.117955        -2.429659
 H        -0.373511         2.950877        -1.165961
 H        -0.767929         3.226716         0.563273
 H         0.818020         2.541067         0.267148
 H        -2.265384         0.640527         1.555731
 H        -3.299507         1.281877         0.034232
 H        -2.716393        -1.043094        -0.838846
 H        -1.158549        -1.803405         1.094640
 H        -0.119836        -1.558444        -0.440802
 H        -0.323708        -0.143698        -2.025295
 H        -2.640965         1.195728        -1.984333
