19
Iteration:  2173charge 0 multiplicity 1
 C        -0.439067         2.680112         0.105508
 C        -0.903183         1.242729         0.012651
 C        -2.346416         0.777063         0.475134
 C        -1.922466        -0.516812        -0.397592
 C        -0.909972        -1.129654         0.583348
 C        -0.065903         0.132967         0.662796
 O         1.103460         0.107944         0.920175
 C        -1.000668         0.445265        -1.250362
 O        -1.683719         1.188003        -2.246784
 H        -0.126641         2.935950        -0.900861
 H        -1.388435         3.293563         0.382884
 H         0.434179         2.913808         0.829227
 H        -2.522764         0.530745         1.477154
 H        -3.088696         1.438979         0.102304
 H        -2.555548        -1.341047        -0.768591
 H        -1.352776        -1.328251         1.614611
 H        -0.287777        -2.048528         0.351451
 H        -0.093482         0.173567        -1.735277
 H        -1.152517         1.127682        -3.104840
