19
Iteration:  2625charge 0 multiplicity 1
 C        -0.263223         2.638143        -0.071889
 C        -0.716395         1.175582        -0.033883
 C        -2.204644         0.795044         0.237729
 C        -1.894396        -0.614003        -0.483390
 C        -0.757889        -1.162399         0.412687
 C        -0.139426         0.156325         0.782317
 O         0.769352         0.282506         1.550877
 C        -1.068788         0.370493        -1.334610
 O        -1.723758         1.193732        -2.335930
 H        -0.815961         3.101077        -0.892171
 H        -0.532519         3.086296         0.897253
 H         0.784333         2.664011        -0.181965
 H        -2.541600         0.709516         1.303186
 H        -2.922881         1.521367        -0.251845
 H        -2.792287        -1.192120        -0.655287
 H        -1.144265        -1.571008         1.373275
 H         0.103538        -1.695257        -0.043777
 H        -0.286540        -0.074002        -1.880169
 H        -2.516711         1.531709        -1.883759
