19
Iteration:  1491charge 0 multiplicity 1
 C        -0.144413         2.541113        -0.164713
 C        -0.660958         1.167234        -0.106257
 C        -2.008487         0.707649         0.598999
 C        -1.882218        -0.486068        -0.345683
 C        -0.583354        -1.173945         0.122259
 C         0.135076         0.135742         0.560157
 O         0.949443         0.112579         1.461514
 C        -1.383857         0.518036        -1.418654
 O        -2.362863         1.371595        -1.956486
 H        -0.156273         3.008484        -1.277735
 H        -0.543597         3.329989         0.558164
 H         0.944258         2.619899        -0.115930
 H        -2.057137         0.542516         1.750696
 H        -2.982797         1.214501         0.456968
 H        -2.822637        -0.988750        -0.415717
 H        -0.747452        -1.779941         0.985450
 H        -0.086435        -1.707196        -0.632730
 H        -0.563557         0.089734        -2.101602
 H        -2.518423         1.023712        -2.895203
