19
Iteration:  4438charge 0 multiplicity 1
 C        -0.420289         2.703817         0.210973
 C        -0.843218         1.233639         0.070331
 C        -2.406074         0.856076         0.241308
 C        -1.933754        -0.470694        -0.453963
 C        -1.001999        -1.130001         0.554538
 C        -0.125357         0.108122         0.804063
 O         0.945093         0.271571         1.277036
 C        -0.946206         0.381249        -1.355939
 O        -1.485295         0.986014        -2.481239
 H         0.736907         2.801264        -0.015042
 H        -0.982273         3.234217        -0.623662
 H        -0.622929         3.089953         1.220989
 H        -2.710541         0.679838         1.231104
 H        -3.000002         1.561035        -0.282508
 H        -2.638200        -1.218674        -0.835381
 H        -1.385617        -1.369223         1.552425
 H        -0.374364        -1.916259         0.197144
 H        -0.044676        -0.274481        -1.650409
 H        -0.685424         1.115501        -3.057617
