19
Iteration:  1318
 C        -0.359521         2.592191         0.345358
 C        -0.809174         1.234010         0.115199
 C        -2.259350         0.831616         0.631377
 C        -2.021255        -0.458250        -0.213915
 C        -0.847772        -1.096828         0.534016
 C         0.094187         0.094563         0.496844
 O         1.299504         0.126985         0.447470
 C        -1.179625         0.434554        -1.280573
 O        -1.982749         1.195807        -2.182218
 H        -0.001209         2.744945         1.406997
 H         0.459854         2.961760        -0.289737
 H        -1.188801         3.240444         0.149369
 H        -2.540590         0.783700         1.713573
 H        -2.814064         1.493456        -0.011155
 H        -2.850303        -1.060202        -0.546105
 H        -1.017437        -1.426018         1.607880
 H        -0.377523        -2.039456        -0.060013
 H        -0.192639         0.014427        -1.711456
 H        -2.421784         0.555063        -2.737953
