19
Iteration:  2464charge 0 multiplicity 1
 C        -0.496260         2.650581         0.124092
 C        -0.881860         1.162455         0.088368
 C        -2.375390         0.850772         0.302870
 C        -1.959950        -0.470881        -0.353192
 C        -0.943099        -1.217737         0.518208
 C        -0.007838         0.125674         0.813747
 O         1.156475         0.248890         1.133260
 C        -1.048408         0.383675        -1.285619
 O        -1.513054         1.144613        -2.430346
 H         0.414840         2.941089         0.662994
 H        -0.329198         3.013723        -0.932778
 H        -1.220549         3.305265         0.609240
 H        -2.958888         0.929475         1.266471
 H        -2.904289         1.529568        -0.328654
 H        -2.726257        -1.148627        -0.910060
 H        -1.313878        -1.865316         1.322096
 H        -0.596001        -1.962791        -0.151656
 H        -0.029642         0.004491        -1.594797
 H        -2.530095         1.154276        -2.365869
