19
Iteration:  2007
 C        -0.126580         2.580573        -0.260954
 C        -0.698972         1.161226        -0.087122
 C        -2.123075         0.652562         0.565810
 C        -1.885229        -0.539357        -0.389242
 C        -0.598575        -1.110576         0.246259
 C         0.020795         0.130889         0.715956
 O         0.779943         0.200820         1.648795
 C        -1.270582         0.419464        -1.461242
 O        -2.094770         1.395737        -2.180805
 H         0.888629         2.755150         0.138988
 H        -0.346100         2.779507        -1.386911
 H        -0.855079         3.269006         0.295652
 H        -2.194266         0.448566         1.609803
 H        -2.892291         1.368129         0.289405
 H        -2.746584        -1.127758        -0.708572
 H        -0.628060        -1.873608         1.094357
 H         0.102454        -1.769485        -0.377547
 H        -0.389952         0.115650        -2.018301
 H        -2.202647         0.974013        -3.029868
