19
Iteration:  3214
 C        -0.246749         2.636416         0.040229
 C        -0.811194         1.237868        -0.107974
 C        -2.295098         0.840235         0.286953
 C        -1.815293        -0.531458        -0.560137
 C        -0.753584        -1.120587         0.377077
 C        -0.149757         0.170311         0.790502
 O         0.709683         0.278879         1.656154
 C        -0.938841         0.312935        -1.390523
 O        -1.743516         1.113323        -2.300378
 H         0.812009         2.723997         0.235821
 H        -0.542661         3.230808        -0.863801
 H        -0.754383         3.044067         0.825991
 H        -2.540044         0.818805         1.377010
 H        -2.978539         1.354599        -0.352977
 H        -2.511939        -1.215574        -1.032101
 H        -1.225976        -1.565534         1.277852
 H        -0.053517        -1.852421        -0.087757
 H        -0.113812        -0.063357        -1.827242
 H        -1.903334         0.717365        -3.135607
