19
Iteration:  2058charge 0 multiplicity 1
 C        -0.161121         2.623262        -0.034526
 C        -0.746236         1.206525        -0.164161
 C        -2.160556         0.736136         0.451849
 C        -1.856374        -0.575863        -0.416171
 C        -0.698446        -1.164722         0.334302
 C         0.018007         0.081832         0.652454
 O         0.843433         0.250815         1.525338
 C        -1.165638         0.464485        -1.451165
 O        -2.040108         1.312736        -2.171799
 H         0.992189         2.652921        -0.237111
 H        -0.680308         3.264174        -0.732960
 H        -0.322242         3.031656         0.970095
 H        -2.333692         0.568057         1.525336
 H        -2.997489         1.351596         0.026524
 H        -2.655636        -1.219067        -0.817040
 H        -0.921598        -1.717648         1.288877
 H        -0.038875        -1.898480        -0.165847
 H        -0.443529        -0.099804        -2.112653
 H        -2.687820         0.613640        -2.535325
