19
Iteration:   940
 C        -0.115097         2.485081        -0.305856
 C        -0.660618         1.147578        -0.239125
 C        -1.832057         0.785965         0.858124
 C        -1.907923        -0.372768        -0.170505
 C        -0.621722        -1.189269         0.086703
 C         0.209635         0.065990         0.366010
 O         1.125838         0.089191         1.166970
 C        -1.556997         0.540809        -1.283088
 O        -2.526000         1.390525        -1.814446
 H        -0.942286         3.115607        -0.327708
 H         0.644764         2.690249         0.443413
 H         0.491542         2.650764        -1.262714
 H        -1.665682         0.551107         1.868955
 H        -2.666027         1.422864         0.838906
 H        -2.774383        -1.058131        -0.320837
 H        -0.759783        -1.840758         0.989056
 H        -0.232974        -1.872268        -0.805244
 H        -0.951026         0.053306        -2.025495
 H        -3.406190         1.071976        -1.453537
