19
Iteration:  4829
 C        -0.268023         2.662343        -0.190066
 C        -0.718829         1.168185        -0.087089
 C        -2.157535         0.778131         0.425193
 C        -1.857140        -0.490128        -0.459399
 C        -0.806737        -1.235869         0.319035
 C        -0.072421         0.111361         0.795879
 O         0.633095         0.294144         1.828882
 C        -1.055539         0.471385        -1.396435
 O        -1.776715         1.110150        -2.435797
 H         0.354495         2.902865         0.697511
 H         0.334405         2.683600        -1.104066
 H        -1.179007         3.295537        -0.227985
 H        -2.329423         0.642570         1.406768
 H        -2.796615         1.354402        -0.104690
 H        -2.586647        -1.169236        -0.848179
 H        -1.357407        -1.758190         1.177512
 H        -0.043477        -1.789958        -0.280899
 H        -0.162467        -0.104404        -1.798837
 H        -1.188623         1.900633        -2.746455
