19
Iteration:  1658
 C        -0.300992         2.721826         0.080401
 C        -0.872747         1.226091         0.027534
 C        -2.253591         0.735903         0.566653
 C        -2.049868        -0.494844        -0.316727
 C        -0.846559        -1.181560         0.450393
 C         0.016321         0.135396         0.567024
 O         1.228141         0.150942         0.889076
 C        -1.172192         0.440480        -1.248545
 O        -1.880510         1.149672        -2.236764
 H         0.523560         2.504533         0.777912
 H         0.083735         3.085427        -0.886980
 H        -1.259678         3.297524         0.515195
 H        -2.329056         0.470870         1.666357
 H        -3.019425         1.490312         0.296196
 H        -2.868501        -1.137147        -0.703434
 H        -1.076341        -1.685449         1.360164
 H        -0.339168        -1.900254        -0.130353
 H        -0.218652         0.008002        -1.604955
 H        -1.773785         2.065045        -1.935884
