19
Iteration:    83
 C        -0.029404         2.487800        -0.234575
 C        -0.691011         1.146029        -0.057457
 C        -1.620668         0.632189         0.998458
 C        -1.959934        -0.505428        -0.124298
 C        -0.586958        -1.233873        -0.189976
 C         0.265586        -0.012595         0.017251
 O         1.395251         0.055347         0.516727
 C        -1.806520         0.636625        -1.123825
 O        -2.905013         1.591586        -1.194182
 H        -0.046311         2.664529        -1.355135
 H        -0.680601         3.341725         0.202758
 H         0.999818         2.652108         0.144248
 H        -1.086237         0.256219         1.914576
 H        -2.478803         1.240096         1.356112
 H        -2.882662        -1.127263        -0.022269
 H        -0.466085        -2.134182         0.514400
 H        -0.420208        -1.648137        -1.214334
 H        -1.607502         0.403850        -2.227266
 H        -2.519483         2.206882        -0.574443
