19
Iteration:  1334
 C        -0.451182         2.642421         0.271012
 C        -0.857176         1.218334         0.106039
 C        -2.295641         0.792772         0.574195
 C        -1.968962        -0.419182        -0.209948
 C        -0.854909        -1.121464         0.587753
 C         0.141069         0.038722         0.480785
 O         1.347683         0.065163         0.424642
 C        -1.196704         0.533704        -1.189363
 O        -1.871771         1.224391        -2.205883
 H         0.149244         2.686875         1.143869
 H         0.190487         2.977656        -0.545015
 H        -1.361687         3.288507         0.511949
 H        -2.289968         0.576250         1.667627
 H        -3.183310         1.395701         0.327228
 H        -2.739961        -1.186529        -0.560467
 H        -1.273355        -1.252396         1.557282
 H        -0.498091        -2.000859         0.231021
 H        -0.467993        -0.099349        -1.638522
 H        -2.792760         0.772951        -2.342234
