19
Iteration:  4732
 C        -0.343270         2.638551         0.234222
 C        -0.900880         1.267119         0.011416
 C        -2.386523         0.810943         0.011040
 C        -1.911446        -0.539739        -0.494687
 C        -0.964437        -1.044527         0.683347
 C        -0.211198         0.181127         0.848822
 O         0.980002         0.251197         1.257520
 C        -0.868960         0.373196        -1.345158
 O        -1.589360         0.994718        -2.393275
 H         0.686679         2.365347         0.082017
 H        -0.645871         3.335956        -0.509874
 H        -0.500144         3.002006         1.176283
 H        -2.734943         0.662496         1.186801
 H        -3.127795         1.320085        -0.566059
 H        -2.690391        -1.272516        -0.818735
 H        -1.554051        -1.415668         1.554682
 H        -0.296853        -1.852946         0.419875
 H         0.099239        -0.014019        -1.719583
 H        -0.919874         1.704529        -2.697389
