19
Iteration:  1721
 C        -0.099271         2.627992        -0.126597
 C        -0.702106         1.210079        -0.126561
 C        -2.095672         0.732203         0.517510
 C        -1.901737        -0.487788        -0.377512
 C        -0.690369        -1.214652         0.248405
 C         0.068256         0.076891         0.637710
 O         0.967161         0.215558         1.444874
 C        -1.273238         0.399139        -1.417297
 O        -2.259763         1.250260        -2.110743
 H         0.911879         2.885753        -0.597578
 H        -0.798543         3.318038        -0.579691
 H         0.196372         3.090153         0.833729
 H        -2.222764         0.428817         1.660809
 H        -2.974518         1.369720         0.218912
 H        -2.720822        -1.174683        -0.518751
 H        -0.990842        -1.854829         1.115821
 H        -0.256896        -1.889748        -0.506840
 H        -0.521987         0.104191        -2.218170
 H        -2.096549         2.152136        -1.688590
