19
Iteration:  1037charge 0 multiplicity 1
 C        -0.340355         2.652192         0.104259
 C        -0.810293         1.219002         0.147810
 C        -2.167740         0.840822         0.742715
 C        -2.045547        -0.507361        -0.151565
 C        -0.818569        -1.117143         0.593721
 C         0.144443         0.075253         0.394472
 O         1.376041         0.016176         0.279338
 C        -1.339575         0.373876        -1.249813
 O        -2.114790         1.288086        -1.988276
 H         0.473828         2.823594         0.789780
 H         0.069989         2.852435        -0.886074
 H        -1.118340         3.365323         0.257779
 H        -2.125155         0.712106         1.818334
 H        -2.884874         1.604118         0.515178
 H        -2.989431        -1.140618        -0.281500
 H        -1.068859        -1.311314         1.674284
 H        -0.402502        -2.055976         0.048676
 H        -0.568494        -0.123780        -1.862382
 H        -1.507698         1.970954        -2.405799
