19
Iteration:  4535charge 0 multiplicity 1
 C        -0.268523         2.646410        -0.067635
 C        -0.704310         1.198971        -0.065325
 C        -2.224196         0.832704         0.241383
 C        -1.932975        -0.506675        -0.404026
 C        -0.727036        -1.124204         0.373482
 C        -0.047792         0.162378         0.801770
 O         0.651328         0.207699         1.738266
 C        -1.084815         0.417238        -1.400310
 O        -1.756199         1.049063        -2.413903
 H         0.728001         2.718750         0.440934
 H        -0.107825         2.820399        -1.148564
 H        -0.886965         3.346083         0.477601
 H        -2.341581         0.897182         1.264881
 H        -2.885236         1.390783        -0.343883
 H        -2.698136        -1.157959        -0.790473
 H        -1.088736        -1.659182         1.242948
 H        -0.342601        -1.850886        -0.278033
 H        -0.121576         0.020067        -1.765499
 H        -1.188593         1.850996        -2.698996
