19
Iteration:  2325charge 0 multiplicity 1
 C        -0.194802         2.653167        -0.214908
 C        -0.691110         1.189312        -0.100130
 C        -2.214706         0.679235         0.518173
 C        -1.867771        -0.560730        -0.493564
 C        -0.722000        -1.200656         0.368752
 C         0.045541         0.085819         0.698730
 O         0.759556         0.283255         1.648089
 C        -1.150136         0.436210        -1.366139
 O        -1.989066         1.309330        -2.263257
 H        -0.898422         3.266854         0.314135
 H         0.805562         2.668480         0.304124
 H        -0.117969         2.924568        -1.284063
 H        -2.282062         0.470757         1.610253
 H        -3.049432         1.332082         0.247469
 H        -2.694468        -1.127835        -0.803420
 H        -1.037378        -1.758994         1.310352
 H        -0.140220        -1.919190        -0.308613
 H        -0.271320         0.090903        -2.026015
 H        -1.588726         1.202652        -3.107767
