19
Iteration:  1282charge 0 multiplicity 1
 C        -0.166553         2.609808         0.194736
 C        -0.775003         1.206799         0.052842
 C        -2.234382         0.724727         0.633181
 C        -2.005180        -0.470764        -0.230374
 C        -0.795356        -1.105931         0.383455
 C         0.116172         0.129354         0.475516
 O         1.295556         0.161086         0.752624
 C        -1.284736         0.467817        -1.274170
 O        -2.220425         1.148441        -2.147410
 H        -0.559712         3.011167         1.171436
 H         0.927394         2.553029         0.200539
 H        -0.534941         3.289976        -0.572871
 H        -2.457266         0.622251         1.689792
 H        -2.989291         1.414449         0.249382
 H        -2.813390        -1.115641        -0.532232
 H        -0.977890        -1.532127         1.392782
 H        -0.213159        -1.814215        -0.212259
 H        -0.427658         0.024089        -1.852704
 H        -1.892912         1.860362        -2.724363
