19
Iteration:  3325charge 0 multiplicity 1
 C        -0.443051         2.633501         0.212531
 C        -0.918195         1.223096         0.013289
 C        -2.454334         0.691785         0.205935
 C        -1.869898        -0.515977        -0.526038
 C        -0.944066        -1.081174         0.637083
 C        -0.133739         0.224269         0.835927
 O         0.975007         0.244900         1.245490
 C        -0.902813         0.460767        -1.322244
 O        -1.387558         1.038867        -2.481457
 H         0.562056         2.857138        -0.114111
 H        -1.135507         3.246076        -0.282431
 H        -0.551454         3.014896         1.207550
 H        -2.798388         0.655020         1.259076
 H        -2.992280         1.405150        -0.489425
 H        -2.529954        -1.369869        -0.972510
 H        -1.707889        -1.274276         1.438086
 H        -0.347237        -2.017214         0.323399
 H        -0.001446        -0.029206        -1.523076
 H        -2.359985         1.347295        -2.428632
