19
Iteration:  4422charge 0 multiplicity 1
 C        -0.488412         2.650042         0.168529
 C        -0.895577         1.268113        -0.025811
 C        -2.294973         0.855381         0.327758
 C        -1.978118        -0.436738        -0.522792
 C        -1.013738        -1.103149         0.536706
 C        -0.076361         0.193530         0.735569
 O         0.950021         0.223510         1.305464
 C        -0.927750         0.341239        -1.263591
 O        -1.455348         0.912866        -2.468460
 H         0.484023         2.971326        -0.061911
 H        -1.185428         3.354261        -0.280952
 H        -0.491030         2.839735         1.342090
 H        -2.456897         0.963236         1.473507
 H        -3.088197         1.438167        -0.329560
 H        -2.752722        -0.930103        -1.138461
 H        -1.615265        -1.391385         1.466060
 H        -0.506354        -2.104488         0.335104
 H         0.117028        -0.035591        -1.327829
 H        -0.789320         1.494742        -3.025412
