19
Iteration:   830
 C        -0.128020         2.525598         0.104535
 C        -0.718828         1.208297         0.042307
 C        -2.000018         0.891744         0.823979
 C        -2.036994        -0.343206        -0.070702
 C        -0.783067        -1.100123         0.316508
 C         0.178434         0.062747         0.315033
 O         1.392371         0.024086         0.433935
 C        -1.462321         0.504273        -1.218898
 O        -2.459985         1.114493        -1.946983
 H         0.964173         2.493635         0.012918
 H        -0.593452         3.206309        -0.632408
 H        -0.284971         2.904257         1.271776
 H        -1.864677         0.946663         1.867415
 H        -2.829516         1.510072         0.506524
 H        -2.904470        -1.017215        -0.273026
 H        -0.851997        -1.510187         1.349212
 H        -0.443112        -1.902006        -0.410713
 H        -0.651735         0.114038        -1.869615
 H        -2.527617         2.046813        -2.059769
