19
Iteration:  2635
 C        -0.263235         2.638021        -0.027422
 C        -0.793942         1.215868        -0.028494
 C        -2.254061         0.731806         0.268643
 C        -1.915595        -0.610233        -0.430213
 C        -0.841042        -1.172365         0.466690
 C        -0.025151         0.115081         0.701673
 O         0.817901         0.321540         1.554998
 C        -1.042194         0.401765        -1.392055
 O        -1.675875         1.196706        -2.352004
 H        -0.866491         3.266595        -0.716954
 H        -0.373060         3.128249         0.951580
 H         0.702250         2.810485        -0.426602
 H        -2.549998         0.899312         1.405385
 H        -3.125349         1.175212        -0.369103
 H        -2.633782        -1.222137        -0.936964
 H        -1.163372        -1.615860         1.433107
 H        -0.367074        -2.081575         0.043755
 H        -0.275496        -0.092256        -1.949529
 H        -2.465313         1.614363        -2.054342
