19
Iteration:  1759charge 0 multiplicity 1
 C        -0.001549         2.532954        -0.103985
 C        -0.731296         1.185004        -0.097168
 C        -2.085617         0.775407         0.601389
 C        -1.848068        -0.450906        -0.338847
 C        -0.631359        -1.202329         0.138441
 C         0.088698         0.060082         0.635145
 O         0.857442         0.293737         1.538130
 C        -1.264189         0.476316        -1.460257
 O        -2.371375         1.199905        -2.136458
 H         0.143980         2.813640        -1.116212
 H        -0.705307         3.216186         0.461458
 H         0.939313         2.307167         0.556100
 H        -2.112845         0.496886         1.601975
 H        -2.890249         1.429996         0.333044
 H        -2.790913        -0.958590        -0.672475
 H        -0.759299        -1.848522         0.990590
 H        -0.167778        -1.684302        -0.724723
 H        -0.447934         0.163970        -2.141093
 H        -1.800932         1.662255        -2.868240
