19
Iteration:  1862charge 0 multiplicity 1
 C        -0.407533         2.600665         0.064596
 C        -0.904308         1.204032         0.102705
 C        -2.341533         0.770304         0.484639
 C        -2.007133        -0.549965        -0.279573
 C        -0.785920        -1.114872         0.469357
 C         0.011569         0.154937         0.621326
 O         1.169436         0.124276         0.898760
 C        -1.151483         0.418057        -1.219676
 O        -1.743323         1.302145        -2.233171
 H        -1.140067         3.426169         0.568660
 H         0.558648         2.628872         0.601658
 H        -0.349112         3.015582        -0.957965
 H        -2.670671         0.894643         1.526758
 H        -3.006950         1.410095        -0.121841
 H        -2.747778        -1.174661        -0.784484
 H        -1.087064        -1.404446         1.574278
 H        -0.189373        -2.012462        -0.018725
 H        -0.248792        -0.213617        -1.557131
 H        -1.370331         0.824887        -3.077621
