19
Iteration:  1356
 C        -0.411424         2.804872         0.180403
 C        -0.814506         1.198275         0.228333
 C        -2.222048         0.726173         0.681596
 C        -2.008198        -0.541317        -0.285228
 C        -0.824719        -1.159722         0.548883
 C         0.090356         0.141821         0.554871
 O         1.281923         0.011048         0.496066
 C        -1.206756         0.440714        -1.320720
 O        -1.889807         1.263840        -2.219200
 H         0.424786         3.037347         0.806217
 H        -0.101387         2.998925        -0.849387
 H        -1.314584         3.391650         0.565590
 H        -2.576279         0.615737         1.734034
 H        -2.947714         1.404115         0.188925
 H        -2.866592        -1.208848        -0.666042
 H        -1.166277        -1.410737         1.536711
 H        -0.345410        -1.927708         0.107840
 H        -0.368406        -0.063848        -1.819874
 H        -2.702686         1.442600        -1.788345
