19
Iteration:  4584
 C        -0.124735         2.548242        -0.014338
 C        -0.758436         1.183771        -0.023677
 C        -2.210569         0.753739         0.300995
 C        -1.802029        -0.528015        -0.604706
 C        -0.835597        -1.101872         0.445736
 C        -0.083841         0.181015         0.759119
 O         0.660575         0.358986         1.775450
 C        -1.024155         0.424702        -1.454363
 O        -1.898048         1.066309        -2.435688
 H         0.944377         2.321085         0.312679
 H        -0.149968         3.039512        -1.018401
 H        -0.458631         3.128900         0.907682
 H        -2.634695         0.623060         1.368354
 H        -2.925358         1.403142        -0.347094
 H        -2.649502        -1.145671        -1.009955
 H        -1.238239        -1.524759         1.413105
 H        -0.055501        -1.916158         0.145674
 H        -0.027153         0.024437        -1.839885
 H        -1.424549         1.716489        -2.934714
