19
Iteration:  2656
 C        -0.360192         2.567375         0.018467
 C        -0.837063         1.180743        -0.019278
 C        -2.362190         0.739816         0.359683
 C        -1.909783        -0.499000        -0.531139
 C        -0.894342        -1.139799         0.498251
 C        -0.043038         0.140112         0.822825
 O         0.974707         0.326959         1.478068
 C        -0.997626         0.430107        -1.368383
 O        -1.626714         1.126804        -2.516959
 H        -0.975393         3.443106        -0.300107
 H        -0.086216         2.690161         1.077115
 H         0.512391         2.662178        -0.645204
 H        -2.652522         0.326981         1.472562
 H        -3.163703         1.567876         0.133474
 H        -2.702444        -1.101332        -0.851755
 H        -1.417423        -1.549330         1.386996
 H        -0.274852        -2.015196         0.225506
 H        -0.108797        -0.015453        -1.810121
 H        -2.312533         1.712355        -2.109256
