19
Iteration:  1617
 C        -0.345354         2.664977         0.342853
 C        -0.852221         1.226672         0.168828
 C        -2.335201         0.815628         0.467107
 C        -2.011928        -0.503025        -0.298023
 C        -0.912977        -1.149774         0.558638
 C         0.076939         0.110023         0.555787
 O         1.311352         0.173000         0.635221
 C        -1.200712         0.460835        -1.281971
 O        -1.888641         1.089216        -2.267231
 H        -0.190143         2.858425         1.344406
 H         0.635046         2.969141        -0.031082
 H        -0.971555         3.465979        -0.063580
 H        -2.510090         0.561338         1.448414
 H        -3.165377         1.402333         0.033564
 H        -2.846211        -1.210594        -0.561777
 H        -1.286069        -1.397357         1.581137
 H        -0.419966        -1.985480        -0.048198
 H        -0.231385        -0.052308        -1.594482
 H        -1.269996         1.695881        -2.846429
