19
Iteration:  1281
 C        -0.170174         2.601450         0.187114
 C        -0.778824         1.200223         0.059098
 C        -2.231258         0.732085         0.631385
 C        -2.009989        -0.470434        -0.233486
 C        -0.784188        -1.109598         0.381202
 C         0.122292         0.126122         0.471886
 O         1.293938         0.161194         0.763939
 C        -1.281557         0.480835        -1.274541
 O        -2.226376         1.143300        -2.147878
 H        -0.558404         2.992754         1.142898
 H         0.923040         2.545042         0.203889
 H        -0.513429         3.292433        -0.623583
 H        -2.424703         0.610117         1.687511
 H        -3.000527         1.422335         0.267157
 H        -2.837075        -1.133040        -0.535902
 H        -0.982849        -1.523768         1.368299
 H        -0.223954        -1.771780        -0.181884
 H        -0.453776         0.047339        -1.849889
 H        -1.882147         1.925255        -2.691890
