19
Iteration:  2276charge 0 multiplicity 1
 C        -0.154213         2.531933        -0.100823
 C        -0.727421         1.168753        -0.077170
 C        -2.204485         0.805830         0.370352
 C        -1.840251        -0.496611        -0.381084
 C        -0.699172        -1.217200         0.285347
 C         0.035066         0.093120         0.714107
 O         0.824127         0.302062         1.616988
 C        -1.120788         0.553467        -1.391883
 O        -2.072911         1.112190        -2.247731
 H        -1.016417         3.199911        -0.354224
 H         0.216676         2.729543         0.871170
 H         0.586756         2.426407        -0.876313
 H        -2.491835         0.894015         1.548255
 H        -3.003203         1.418971        -0.185175
 H        -2.680334        -1.181719        -0.804837
 H        -1.044849        -1.767483         1.121620
 H        -0.191231        -1.874416        -0.356475
 H        -0.395636         0.177781        -2.086253
 H        -1.946026         2.087945        -2.468602
