19
Iteration:  4675charge 0 multiplicity 1
 C        -0.511796         2.752316         0.011006
 C        -0.862421         1.297080         0.106146
 C        -2.352501         0.804526         0.361150
 C        -1.981504        -0.497841        -0.440830
 C        -0.914135        -1.049169         0.513896
 C        -0.194988         0.170101         0.852274
 O         0.957731         0.114032         1.372377
 C        -0.994768         0.332670        -1.299329
 O        -1.389000         1.043876        -2.593913
 H         0.270343         2.971823        -0.669002
 H        -1.349736         3.346601        -0.287760
 H        -0.058791         3.029450         0.960720
 H        -2.534488         0.580611         1.545542
 H        -3.202362         1.353662        -0.077392
 H        -2.709497        -1.141504        -0.843506
 H        -1.470820        -1.388231         1.450565
 H        -0.244133        -1.892441         0.133734
 H        -0.047520        -0.147029        -1.623745
 H        -0.478022         1.053446        -2.970232
