19
Iteration:  2003charge 0 multiplicity 1
 C        -0.106719         2.634893        -0.256960
 C        -0.712656         1.171417        -0.073924
 C        -2.115061         0.646321         0.567373
 C        -1.897672        -0.591011        -0.378099
 C        -0.607345        -1.149333         0.260372
 C        -0.008688         0.149286         0.714290
 O         0.796754         0.185277         1.632631
 C        -1.257721         0.449291        -1.431951
 O        -2.092874         1.400401        -2.208029
 H         0.995233         2.836163         0.115940
 H        -0.293453         2.736161        -1.294999
 H        -0.839288         3.295308         0.197507
 H        -2.248153         0.406638         1.628933
 H        -2.948082         1.294414         0.218095
 H        -2.779725        -1.190983        -0.640698
 H        -0.619573        -1.822350         1.147907
 H         0.120543        -1.708326        -0.389001
 H        -0.450237         0.091305        -2.118426
 H        -2.216361         0.981906        -3.123168
