19
Iteration:  3802charge 0 multiplicity 1
 C        -0.216809         2.599483         0.075394
 C        -0.839051         1.211474         0.097249
 C        -2.360265         0.823455         0.168165
 C        -1.846167        -0.500170        -0.573561
 C        -0.813427        -1.138900         0.546419
 C        -0.137469         0.168774         0.781611
 O         0.796336         0.318730         1.549729
 C        -1.000920         0.368378        -1.397246
 O        -1.708406         1.074865        -2.377029
 H         0.333233         2.671575        -0.919235
 H        -0.953885         3.498578         0.190680
 H         0.512269         2.609135         0.828520
 H        -2.873898         0.761751         1.071996
 H        -2.863634         1.437079        -0.580840
 H        -2.522490        -1.169264        -0.988159
 H        -1.510864        -1.501280         1.312448
 H        -0.305462        -2.069460         0.243513
 H        -0.117792        -0.195667        -1.858469
 H        -1.016455         1.285796        -3.098088
