19
Iteration:  4687charge 0 multiplicity 1
 C        -0.538666         2.710970         0.077546
 C        -0.940214         1.255037         0.090151
 C        -2.403054         0.835851         0.382217
 C        -1.973984        -0.395283        -0.434458
 C        -1.011164        -1.078339         0.540186
 C        -0.066110         0.196673         0.772072
 O         0.969565         0.156763         1.332827
 C        -0.899661         0.283816        -1.394159
 O        -1.358920         0.981579        -2.501561
 H         0.246455         2.855022        -0.633392
 H        -1.362098         3.325064        -0.195180
 H        -0.242618         3.047552         1.033285
 H        -2.769291         0.677080         1.529021
 H        -3.047661         1.542512        -0.109200
 H        -2.688236        -1.034962        -0.912150
 H        -1.437690        -1.531559         1.470371
 H        -0.343045        -1.832746         0.064739
 H         0.005200        -0.306200        -1.509107
 H        -0.604212         1.346615        -3.114458
