19
Iteration:  1652charge 0 multiplicity 1
 C        -0.357143         2.625750         0.132357
 C        -0.877009         1.249248         0.103055
 C        -2.283306         0.779444         0.553903
 C        -1.999154        -0.481554        -0.275276
 C        -0.871096        -1.129326         0.449181
 C         0.047641         0.106858         0.570473
 O         1.215984         0.163928         0.821248
 C        -1.173018         0.447823        -1.281014
 O        -1.845884         1.120694        -2.263565
 H         0.411358         2.563168         0.943458
 H         0.080528         2.923736        -0.827972
 H        -1.127467         3.219152         0.450414
 H        -2.280046         0.547224         1.623222
 H        -3.043173         1.524116         0.339791
 H        -2.843096        -1.127692        -0.531943
 H        -1.144088        -1.649186         1.419366
 H        -0.285150        -1.941675        -0.125188
 H        -0.277279         0.085009        -1.848254
 H        -1.726897         2.130714        -2.087360
