19
Iteration:   423charge 0 multiplicity 1
 C        -0.199005         2.643888        -0.120447
 C        -0.633354         1.213882        -0.039730
 C        -1.836180         0.747413         0.949331
 C        -1.997709        -0.393294        -0.046314
 C        -0.736644        -1.217664         0.130667
 C         0.254618         0.025959         0.194169
 O         1.469858        -0.087916         0.400338
 C        -1.630355         0.498111        -1.195624
 O        -2.647852         1.420172        -1.481594
 H         0.810988         2.907643        -0.464488
 H        -0.844185         3.156529        -0.936277
 H        -0.402738         3.232901         0.701414
 H        -1.578988         0.426604         2.063872
 H        -2.736043         1.437196         0.887570
 H        -2.975853        -0.851662        -0.131582
 H        -0.532983        -1.852984         1.054499
 H        -0.527238        -1.898345        -0.644904
 H        -1.148699         0.065955        -2.021649
 H        -2.351317         1.847251        -2.348608
