19
Iteration:   429charge 0 multiplicity 1
 C        -0.220803         2.673275        -0.124230
 C        -0.651006         1.180713         0.038413
 C        -1.875412         0.789107         0.951348
 C        -2.014180        -0.432104        -0.034702
 C        -0.750070        -1.225172         0.173809
 C         0.290026         0.003323         0.214420
 O         1.502320        -0.078930         0.342249
 C        -1.603067         0.501028        -1.175984
 O        -2.645578         1.436976        -1.548869
 H         0.792975         2.752763        -0.554777
 H        -0.916242         3.226652        -0.709783
 H        -0.165564         3.253057         0.907960
 H        -1.524163         0.486446         1.876794
 H        -2.724982         1.424138         1.087748
 H        -3.024380        -0.856240        -0.299214
 H        -0.532766        -1.789729         1.065610
 H        -0.590188        -1.955258        -0.696466
 H        -1.083957         0.080378        -2.116279
 H        -2.522429         1.774657        -2.449698
