19
Iteration:  3242charge 0 multiplicity 1
 C        -0.380408         2.666367         0.044213
 C        -0.853438         1.179911        -0.016461
 C        -2.305348         0.727183         0.327139
 C        -1.900236        -0.496782        -0.542511
 C        -0.908323        -1.162848         0.490848
 C        -0.067934         0.079937         0.840288
 O         0.901626         0.331513         1.549017
 C        -0.975931         0.398851        -1.332196
 O        -1.549672         1.190012        -2.490431
 H         0.679461         2.948131         0.235588
 H        -0.630924         3.053603        -0.959651
 H        -1.125865         3.074063         0.854259
 H        -2.759278         0.735266         1.318088
 H        -2.954467         1.365797        -0.324896
 H        -2.617132        -1.221233        -0.933937
 H        -1.411845        -1.630517         1.330582
 H        -0.440284        -2.024295        -0.006209
 H         0.060887        -0.070902        -1.775488
 H        -2.195234         0.734441        -3.074571
