19
Iteration:  3102charge 0 multiplicity 1
 C        -0.361933         2.629441        -0.006315
 C        -0.801804         1.219681        -0.071322
 C        -2.319584         0.856107         0.312317
 C        -1.828350        -0.517343        -0.568765
 C        -0.812887        -1.103386         0.461378
 C        -0.153694         0.182670         0.892049
 O         0.825726         0.233423         1.657726
 C        -1.019953         0.370266        -1.406648
 O        -1.611573         1.023150        -2.499459
 H         0.226495         2.912874        -0.857841
 H        -1.173388         3.337091        -0.072724
 H         0.265237         2.761923         0.835189
 H        -2.644747         0.593326         1.353758
 H        -3.117762         1.591890        -0.144807
 H        -2.436340        -1.332174        -0.938659
 H        -1.363671        -1.580714         1.265414
 H        -0.078603        -1.841202         0.073565
 H        -0.119502        -0.180761        -1.781668
 H        -1.878157         1.990502        -2.283898
