19
Iteration:  3573charge 0 multiplicity 1
 C        -0.422169         2.653165         0.132964
 C        -0.971085         1.226703         0.026869
 C        -2.403769         0.780203         0.186752
 C        -1.884812        -0.574699        -0.526688
 C        -0.988250        -1.142952         0.627396
 C        -0.137123         0.138680         0.875183
 O         1.013136         0.280925         1.279684
 C        -0.913302         0.360714        -1.313429
 O        -1.411818         1.099953        -2.465054
 H         0.570579         2.655290        -0.398338
 H        -1.036986         3.238004        -0.681101
 H        -0.333685         3.255246         0.999056
 H        -2.859517         0.686508         1.230304
 H        -3.156176         1.360777        -0.339284
 H        -2.512750        -1.193316        -0.986852
 H        -1.529910        -1.276224         1.556528
 H        -0.545592        -2.096995         0.376042
 H         0.089127         0.234278        -1.525232
 H        -2.118907         1.747092        -2.051084
