19
Iteration:  3050
 C        -0.434831         2.583548         0.162683
 C        -0.959621         1.216995         0.137246
 C        -2.391230         0.855599         0.174304
 C        -1.971500        -0.478602        -0.522941
 C        -0.936669        -1.068108         0.557155
 C        -0.155082         0.211174         0.846053
 O         0.994122         0.333912         1.281819
 C        -0.914767         0.265894        -1.373903
 O        -1.383735         1.026903        -2.435482
 H         0.511420         2.659482        -0.447246
 H        -1.112412         3.447328        -0.158337
 H        -0.064345         2.594958         1.147112
 H        -2.619344         0.780749         1.215659
 H        -3.074361         1.284676        -0.429791
 H        -2.708045        -1.083817        -0.962056
 H        -1.345648        -1.469684         1.509881
 H        -0.267146        -1.842180         0.082170
 H         0.008241        -0.430704        -1.545531
 H        -2.391475         1.264196        -2.396094
