19
Iteration:   712
 C        -0.174078         2.579803        -0.093325
 C        -0.696356         1.157737        -0.021497
 C        -1.890097         0.759884         0.919925
 C        -2.054998        -0.395759        -0.091077
 C        -0.787261        -1.143982         0.289565
 C         0.213163        -0.002185         0.302434
 O         1.412442         0.057139         0.507229
 C        -1.546144         0.505329        -1.188593
 O        -2.433937         1.414229        -1.809324
 H        -0.910813         3.310472         0.028274
 H         0.551059         2.645554         0.688953
 H         0.380862         2.743341        -1.059606
 H        -1.605699         0.708399         2.082212
 H        -2.844880         1.336226         0.887186
 H        -2.986219        -0.989353        -0.047402
 H        -0.975522        -1.820164         1.100383
 H        -0.511724        -1.798676        -0.583946
 H        -0.941093        -0.016262        -2.007968
 H        -3.054689         0.828172        -2.346729
