19
Iteration:  1184
 C        -0.003892         2.650031        -0.349444
 C        -0.563194         1.240198        -0.162888
 C        -1.949192         0.680336         0.746604
 C        -1.953678        -0.526201        -0.294423
 C        -0.622869        -1.235618         0.075402
 C         0.146193         0.076297         0.481894
 O         0.980041         0.157253         1.342536
 C        -1.455173         0.476936        -1.281440
 O        -2.523153         1.343344        -1.802129
 H        -0.701466         3.184386        -1.022833
 H        -0.071269         3.149071         0.624513
 H         1.044912         2.592936        -0.590781
 H        -1.772406         0.642566         1.814890
 H        -2.786316         1.376770         0.522292
 H        -2.816835        -1.137698        -0.451707
 H        -0.678081        -2.000196         0.931736
 H        -0.101920        -1.689334        -0.934812
 H        -0.815375        -0.045863        -2.084433
 H        -2.282936         1.589017        -2.695794
