19
Iteration:  2084charge 0 multiplicity 1
 C        -0.236080         2.550878         0.050115
 C        -0.795545         1.197609         0.009319
 C        -2.267086         0.706641         0.463984
 C        -1.897282        -0.439645        -0.488851
 C        -0.781492        -1.097595         0.367739
 C         0.035685         0.100773         0.778732
 O         1.077417         0.256302         1.398783
 C        -1.186038         0.497515        -1.388271
 O        -1.976867         1.214037        -2.350185
 H         0.651829         2.512071        -0.662056
 H        -0.927806         3.397593        -0.353258
 H         0.200640         2.815032         1.070736
 H        -2.568611         0.370169         1.422744
 H        -2.919354         1.439917         0.058413
 H        -2.655939        -1.093411        -0.927240
 H        -1.301451        -1.652408         1.203567
 H        -0.126378        -1.921394        -0.108536
 H        -0.371527        -0.025558        -1.877366
 H        -2.528709         0.462504        -2.783617
