19
Iteration:  1728
 C        -0.044660         2.679046        -0.091929
 C        -0.700228         1.210692        -0.101342
 C        -2.028696         0.702326         0.546562
 C        -1.907401        -0.522562        -0.365125
 C        -0.696597        -1.191338         0.211253
 C         0.052787         0.090421         0.590661
 O         0.861756         0.238075         1.437581
 C        -1.242489         0.375408        -1.408285
 O        -2.270984         1.228504        -2.093725
 H         0.690117         2.564040        -0.930350
 H        -0.811099         3.417831        -0.410698
 H         0.322529         2.960592         0.869272
 H        -2.109243         0.460298         1.537286
 H        -2.761895         1.387908         0.214910
 H        -2.884913        -0.978771        -0.627174
 H        -0.770586        -1.740360         1.198643
 H        -0.141778        -1.894213        -0.508920
 H        -0.596166         0.129868        -2.258233
 H        -2.071943         2.108736        -1.830880
