19
Iteration:  4242
 C        -0.173021         2.634557        -0.013323
 C        -0.766157         1.195968        -0.100009
 C        -2.315920         0.730105         0.247981
 C        -1.873717        -0.532145        -0.517092
 C        -0.848933        -1.152904         0.467331
 C        -0.115895         0.197236         0.831455
 O         0.758828         0.283480         1.705648
 C        -0.957947         0.389063        -1.449394
 O        -1.805835         1.106816        -2.411971
 H         0.920036         2.523188        -0.100880
 H        -0.575380         3.312108        -0.734250
 H        -0.418592         2.957845         0.907311
 H        -2.577882         0.627819         1.412497
 H        -2.890892         1.624272        -0.139722
 H        -2.806251        -0.981982        -1.002995
 H        -1.423305        -1.476420         1.355267
 H        -0.151670        -1.940447         0.131823
 H        -0.089483        -0.051592        -2.019982
 H        -1.100238         1.627273        -2.773414
