19
Iteration:  2976charge 0 multiplicity 1
 C        -0.469685         2.700256         0.074346
 C        -0.822432         1.203246         0.007420
 C        -2.323241         0.761606         0.201440
 C        -1.953941        -0.494614        -0.501416
 C        -0.889583        -1.114484         0.526712
 C        -0.076287         0.189211         0.834605
 O         0.976897         0.214685         1.467007
 C        -1.019794         0.327215        -1.372097
 O        -1.484086         1.077113        -2.467462
 H         0.502304         2.874882         0.638448
 H        -0.568956         3.165476        -0.973659
 H        -1.321952         3.250089         0.579669
 H        -2.667617         0.443186         1.261873
 H        -2.869955         1.633030        -0.260586
 H        -2.687973        -1.114006        -0.997477
 H        -1.450296        -1.306910         1.464719
 H        -0.343132        -2.041595         0.278458
 H        -0.101235        -0.156054        -1.661184
 H        -2.175328         1.720053        -2.248953
