19
Iteration:  3625charge 0 multiplicity 1
 C        -0.474565         2.716630         0.112213
 C        -0.894959         1.245411         0.114272
 C        -2.326612         0.827786         0.245227
 C        -1.947070        -0.470038        -0.430594
 C        -0.923925        -1.165467         0.508068
 C        -0.093399         0.100421         0.802296
 O         0.948043         0.229932         1.320793
 C        -0.993433         0.369255        -1.306129
 O        -1.410995         1.088399        -2.468241
 H         0.550539         2.945379         0.351741
 H        -0.795407         3.181979        -0.821743
 H        -1.047981         3.190024         0.847460
 H        -2.762215         1.001421         1.248014
 H        -2.844263         1.449168        -0.488284
 H        -2.775325        -1.081615        -0.906380
 H        -1.264830        -1.668436         1.427983
 H        -0.246192        -1.880314        -0.048466
 H        -0.007609        -0.105340        -1.535080
 H        -2.013354         0.400300        -2.929749
