19
Iteration:  2663
 C        -0.342324         2.543449         0.048633
 C        -0.855867         1.196038         0.070357
 C        -2.317911         0.731246         0.374220
 C        -1.952456        -0.510613        -0.554718
 C        -0.891033        -1.063915         0.509149
 C        -0.096772         0.165049         0.859748
 O         0.979782         0.305368         1.415991
 C        -1.018420         0.437312        -1.382704
 O        -1.605986         1.087387        -2.515570
 H        -1.173595         3.259974        -0.143860
 H         0.042307         2.836895         1.033805
 H         0.520675         2.815512        -0.641274
 H        -2.391104         0.515399         1.396112
 H        -3.077940         1.352010         0.009501
 H        -2.654437        -1.189892        -1.125982
 H        -1.411902        -1.565580         1.321326
 H        -0.215291        -1.860859         0.146780
 H        -0.119381        -0.139058        -1.809687
 H        -2.269736         1.721449        -2.363206
