19
Iteration:  2192charge 0 multiplicity 1
 C        -0.374256         2.692889         0.088578
 C        -0.880621         1.272329         0.172349
 C        -2.348239         0.758401         0.334125
 C        -1.966755        -0.508556        -0.424774
 C        -0.881679        -1.058626         0.458816
 C        -0.018941         0.165871         0.767736
 O         1.171197         0.138848         1.012459
 C        -1.053167         0.316103        -1.260715
 O        -1.791196         1.112681        -2.213647
 H        -0.083886         3.022758        -0.938845
 H        -1.098800         3.431564         0.557387
 H         0.495260         2.858137         0.754227
 H        -2.722642         0.701165         1.352167
 H        -3.043207         1.364694        -0.195845
 H        -2.808503        -0.850522        -0.973579
 H        -1.325626        -1.654997         1.301643
 H        -0.245352        -1.793941        -0.172883
 H        -0.139404        -0.109750        -1.776151
 H        -1.294315         1.352094        -2.991142
