19
Iteration:  1307
 C        -0.277582         2.706720         0.334470
 C        -0.850815         1.244767         0.152020
 C        -2.223389         0.877654         0.525442
 C        -2.013089        -0.486296        -0.253497
 C        -0.821902        -1.186063         0.481720
 C         0.086678         0.090409         0.509515
 O         1.321759         0.150007         0.514233
 C        -1.262295         0.388650        -1.248553
 O        -2.055354         1.157086        -2.142661
 H        -0.156779         2.819831         1.461732
 H         0.717375         2.705332        -0.132676
 H        -0.935727         3.498172         0.041152
 H        -2.266606         0.759589         1.647630
 H        -3.077857         1.518936         0.330929
 H        -2.842802        -1.087515        -0.558992
 H        -1.182361        -1.536887         1.505617
 H        -0.071541        -2.019530        -0.004922
 H        -0.383326        -0.112264        -1.826156
 H        -2.185348         0.924158        -3.114992
