19
Iteration:   227
 C        -0.024805         2.566059         0.154899
 C        -0.705591         1.195059         0.197395
 C        -1.926408         0.689856         1.082963
 C        -2.005711        -0.470823         0.022647
 C        -0.737630        -1.209382         0.268617
 C         0.200005         0.039419         0.128240
 O         1.307865         0.100683        -0.272224
 C        -1.569088         0.520395        -1.092978
 O        -2.462318         1.411465        -1.687221
 H         1.038303         2.635013         0.447105
 H        -0.267621         3.158132        -0.862097
 H        -0.491599         3.269455         0.837547
 H        -1.850705         0.560455         2.202483
 H        -2.835871         1.318981         0.964565
 H        -2.841544        -1.131127         0.028961
 H        -0.638486        -1.607793         1.377932
 H        -0.626444        -2.076001        -0.366457
 H        -1.002206         0.019885        -1.984123
 H        -3.256573         1.705388        -1.148360
