19
Iteration:   671
 C        -0.023909         2.521095        -0.230513
 C        -0.703079         1.225263        -0.252090
 C        -1.792295         0.792249         0.810130
 C        -1.893041        -0.382355        -0.091436
 C        -0.654513        -1.146824         0.070358
 C         0.228798        -0.020328         0.285266
 O         1.278760        -0.011259         0.916063
 C        -1.642197         0.578119        -1.277809
 O        -2.691913         1.386362        -1.571189
 H        -0.220219         3.094485        -1.176260
 H        -0.361267         3.160915         0.652183
 H         1.062329         2.441685        -0.136454
 H        -1.594292         0.620261         1.860084
 H        -2.564124         1.524726         0.705632
 H        -2.779635        -1.024599        -0.240967
 H        -0.692883        -1.944516         0.927627
 H        -0.223493        -1.622378        -0.850247
 H        -1.212342         0.048596        -2.100951
 H        -3.524044         0.908801        -1.593998
