19
Iteration:  2460
 C        -0.505282         2.643435         0.131537
 C        -0.887170         1.159542         0.053959
 C        -2.414122         0.865838         0.290187
 C        -1.958784        -0.463525        -0.351258
 C        -0.914728        -1.207784         0.509957
 C        -0.017950         0.126403         0.826999
 O         1.150393         0.230730         1.111846
 C        -1.048335         0.399265        -1.242524
 O        -1.496282         1.139173        -2.415375
 H         0.435757         2.845396         0.739053
 H        -0.300044         3.061835        -0.862818
 H        -1.363763         3.226873         0.529685
 H        -2.771311         0.902829         1.262832
 H        -2.819388         1.622105        -0.399450
 H        -2.671961        -1.248734        -0.696925
 H        -1.285283        -1.715854         1.442856
 H        -0.586936        -1.942051        -0.315487
 H        -0.138650        -0.038588        -1.723051
 H        -2.462093         1.101554        -2.421182
