19
Iteration:   583charge 0 multiplicity 1
 C        -0.161009         2.537737        -0.183474
 C        -0.654979         1.093984        -0.097543
 C        -1.942299         0.766225         0.964167
 C        -2.053241        -0.441866        -0.028985
 C        -0.688973        -1.277358         0.092573
 C         0.284661        -0.030601         0.245926
 O         1.431318         0.048907         0.630636
 C        -1.578117         0.587705        -1.218735
 O        -2.567773         1.557840        -1.589128
 H         0.628964         2.918142         0.501298
 H         0.194202         2.695906        -1.241750
 H        -1.116464         3.202936        -0.097934
 H        -1.628729         0.621632         1.942902
 H        -2.792921         1.400566         0.750687
 H        -2.979352        -1.064241        -0.191189
 H        -0.528073        -1.883349         1.018639
 H        -0.379829        -1.802252        -0.845385
 H        -1.096373         0.078964        -2.082537
 H        -3.065214         1.311614        -2.374313
