19
Iteration:    60
 C         0.005936         2.567715        -0.184893
 C        -0.624644         1.190056        -0.222980
 C        -1.671366         0.612194         1.011845
 C        -1.980119        -0.489877        -0.064033
 C        -0.617069        -1.203585        -0.236180
 C         0.303123         0.000127        -0.011944
 O         1.402606        -0.013911         0.506574
 C        -1.728136         0.695276        -1.079152
 O        -2.989130         1.463001        -1.088411
 H         0.902836         2.548384        -0.899975
 H        -0.657050         3.428414        -0.484159
 H         0.367524         2.703104         0.886658
 H        -1.228800         0.348580         2.036966
 H        -2.442120         1.417488         1.170008
 H        -2.974888        -1.015170         0.071461
 H        -0.537173        -2.065060         0.435027
 H        -0.452601        -1.697303        -1.257640
 H        -1.616347         0.445993        -2.191668
 H        -2.720820         2.246490        -1.676934
