19
Iteration:  1913
 C        -0.415465         2.623183         0.235434
 C        -0.870963         1.228260         0.049697
 C        -2.251266         0.764305         0.434816
 C        -1.960531        -0.515873        -0.370726
 C        -0.877188        -1.054093         0.563882
 C         0.028553         0.101142         0.606266
 O         1.170595         0.152588         0.950244
 C        -1.125410         0.471286        -1.302404
 O        -1.765041         1.181146        -2.342186
 H        -0.201520         2.888715         1.277048
 H         0.509482         2.871971        -0.302484
 H        -1.154678         3.398812        -0.046204
 H        -2.674510         0.618479         1.491491
 H        -2.998980         1.317377        -0.119969
 H        -2.735415        -1.239147        -0.692211
 H        -1.210861        -1.251127         1.548326
 H        -0.420019        -1.957308         0.305406
 H        -0.169170         0.029719        -1.562930
 H        -2.228778         0.579557        -2.917004
