19
Iteration:   379charge 0 multiplicity 1
 C         0.009102         2.561041        -0.313771
 C        -0.680623         1.140957        -0.146565
 C        -1.695460         0.671559         0.945668
 C        -1.946697        -0.427945        -0.056444
 C        -0.631733        -1.255387        -0.050491
 C         0.311854        -0.049149         0.175100
 O         1.371639         0.090322         0.717752
 C        -1.764320         0.611776        -1.217363
 O        -2.887043         1.462157        -1.425197
 H         0.514405         2.747943         0.643019
 H         0.854184         2.476081        -1.147423
 H        -0.591249         3.368803        -0.569522
 H        -1.252276         0.365248         2.002226
 H        -2.573914         1.382154         1.042880
 H        -2.865518        -0.980672         0.095574
 H        -0.870212        -2.002468         0.771878
 H        -0.335330        -1.833934        -0.874328
 H        -1.538943         0.182557        -2.161040
 H        -2.809440         2.432755        -1.190995
