19
Iteration:  3220
 C        -0.290521         2.665796         0.046299
 C        -0.783200         1.221562        -0.087741
 C        -2.275392         0.825774         0.272768
 C        -1.861744        -0.561766        -0.546632
 C        -0.811142        -1.142014         0.366815
 C        -0.127456         0.212853         0.789762
 O         0.752316         0.281171         1.649901
 C        -0.940038         0.340334        -1.392049
 O        -1.711640         1.122947        -2.319991
 H         0.817161         2.686003         0.192464
 H        -0.408726         3.175474        -0.913683
 H        -0.854329         3.112854         0.980267
 H        -2.632033         0.744791         1.298733
 H        -3.146067         1.345547        -0.209468
 H        -2.624220        -1.180693        -1.034353
 H        -1.203910        -1.633931         1.248725
 H        -0.069280        -1.867241         0.045574
 H         0.049864        -0.229883        -1.823186
 H        -1.982268         0.650274        -3.113341
