19
Iteration:   551
 C        -0.227737         2.698397         0.036695
 C        -0.632578         1.257578        -0.033484
 C        -1.959283         0.722911         0.936889
 C        -2.048526        -0.406686        -0.082460
 C        -0.752497        -1.180970         0.281382
 C         0.237760         0.017973         0.288245
 O         1.432619        -0.116793         0.261879
 C        -1.489467         0.527113        -1.207697
 O        -2.485548         1.401856        -1.665335
 H        -0.387528         3.212490         1.019378
 H         0.863313         2.851255        -0.279831
 H        -0.810411         3.272624        -0.791064
 H        -1.702609         0.575994         1.910921
 H        -2.874405         1.301121         0.932381
 H        -3.013557        -0.942978        -0.300484
 H        -0.807654        -1.608808         1.337127
 H        -0.400531        -2.000355        -0.336244
 H        -0.884980         0.132399        -2.113739
 H        -3.137387         1.020128        -2.245234
