19
Iteration:   295charge 0 multiplicity 1
 C        -0.245153         2.637866        -0.109723
 C        -0.680221         1.187519        -0.098078
 C        -1.711093         0.697888         0.974406
 C        -1.985778        -0.455778        -0.029968
 C        -0.749760        -1.208518         0.082543
 C         0.313390         0.019508         0.135484
 O         1.515415        -0.106731         0.336639
 C        -1.668625         0.562442        -1.154202
 O        -2.730717         1.519103        -1.385313
 H        -0.387032         3.160688        -1.082554
 H        -0.702246         3.248741         0.682171
 H         0.899301         2.624979        -0.039300
 H        -1.344815         0.504085         1.956192
 H        -2.512788         1.393562         1.147831
 H        -2.898651        -0.993394        -0.075377
 H        -0.876443        -1.694054         1.085866
 H        -0.553312        -1.935488        -0.774420
 H        -1.266386         0.059717        -2.105575
 H        -2.664826         1.752473        -2.299111
