19
Iteration:  4431charge 0 multiplicity 1
 C        -0.424173         2.678912         0.212349
 C        -0.873059         1.237869         0.037005
 C        -2.339828         0.917047         0.261443
 C        -1.964917        -0.493558        -0.472204
 C        -0.972582        -1.114665         0.569791
 C        -0.140453         0.107610         0.724217
 O         0.961519         0.264441         1.298030
 C        -0.930634         0.388876        -1.313882
 O        -1.464358         0.943780        -2.465778
 H         0.538671         2.909472        -0.101159
 H        -1.103198         3.236506        -0.392927
 H        -0.716166         3.045505         1.158981
 H        -2.704366         0.683288         1.376611
 H        -3.201061         1.467149        -0.161877
 H        -2.714934        -1.070831        -1.008567
 H        -1.658182        -1.317187         1.407435
 H        -0.392981        -2.013569         0.208180
 H        -0.082188        -0.142956        -1.669289
 H        -0.638182         1.214113        -3.032313
