19
Iteration:  2680
 C        -0.355784         2.733733         0.180389
 C        -0.859722         1.280410         0.070915
 C        -2.337565         0.755216         0.331305
 C        -1.906545        -0.508658        -0.425854
 C        -0.894033        -1.124763         0.439516
 C        -0.136682         0.181639         0.772550
 O         0.947218         0.226925         1.288958
 C        -1.044341         0.363617        -1.334445
 O        -1.509990         0.997436        -2.492315
 H        -1.119755         3.496525        -0.001118
 H         0.243963         2.999433         1.075371
 H         0.224211         2.798705        -0.708295
 H        -2.867675         0.656413         1.361683
 H        -3.035295         1.433480        -0.298439
 H        -2.724035        -1.155326        -0.748574
 H        -1.268549        -1.673679         1.336742
 H        -0.165978        -1.797415        -0.046698
 H        -0.103269        -0.043146        -1.591844
 H        -2.227244         1.527658        -2.215085
