19
Iteration:  3297
 C        -0.476043         2.723506         0.126306
 C        -0.938197         1.260892         0.126982
 C        -2.507259         0.763520         0.119049
 C        -1.927212        -0.496008        -0.570143
 C        -0.923920        -1.209700         0.623922
 C        -0.141361         0.156956         0.855121
 O         1.051877         0.257236         1.214018
 C        -0.868283         0.387568        -1.280631
 O        -1.370765         1.083543        -2.358953
 H         0.593035         2.776807        -0.193212
 H        -1.183881         3.186969        -0.644025
 H        -0.647293         3.383510         1.089398
 H        -2.913770         0.711476         1.144766
 H        -3.080416         1.538804        -0.409573
 H        -2.575306        -1.241821        -1.045164
 H        -1.530453        -1.539746         1.470073
 H        -0.403926        -2.078633         0.220272
 H         0.154091        -0.215029        -1.409973
 H        -2.376505         0.997949        -2.583746
