19
Iteration:  3584
 C        -0.450468         2.619839         0.084783
 C        -0.879398         1.225121         0.165184
 C        -2.383520         0.728650         0.206025
 C        -1.910827        -0.548144        -0.516542
 C        -0.988528        -1.064195         0.615665
 C        -0.150567         0.180294         0.793416
 O         0.952018         0.261258         1.232542
 C        -0.913851         0.430259        -1.303898
 O        -1.367049         1.085270        -2.432518
 H         0.627553         2.551453        -0.207772
 H        -1.078761         3.207687        -0.681342
 H        -0.496239         3.110786         1.037539
 H        -2.809081         0.429365         1.208502
 H        -3.035151         1.358734        -0.393063
 H        -2.523960        -1.217043        -0.946472
 H        -1.658514        -1.238294         1.449829
 H        -0.312602        -1.905343         0.518441
 H        -0.151290        -0.171410        -1.647000
 H        -2.252849         1.480758        -2.350822
