19
Iteration:  3732charge 0 multiplicity 1
 C        -0.207967         2.622065        -0.148655
 C        -0.778930         1.197893        -0.138022
 C        -2.269791         0.826143         0.344507
 C        -1.830283        -0.476009        -0.418411
 C        -0.790357        -1.241314         0.417373
 C        -0.066383         0.082980         0.780436
 O         0.604315         0.301741         1.771860
 C        -0.990991         0.455205        -1.371212
 O        -1.760963         1.077738        -2.466912
 H         0.664255         2.609441        -0.831752
 H        -0.896270         3.379852        -0.536680
 H         0.126325         2.815944         1.040663
 H        -2.499951         0.541638         1.354840
 H        -3.019227         1.393788        -0.158322
 H        -2.691295        -1.103970        -0.933983
 H        -1.000922        -1.822842         1.319993
 H         0.119393        -1.639808        -0.067157
 H        -0.111081         0.073052        -1.906290
 H        -1.457341         2.086111        -2.413447
