19
Iteration:  1930
 C        -0.350079         2.739443         0.224300
 C        -0.822110         1.275435        -0.037793
 C        -2.388663         0.790718         0.402476
 C        -1.938914        -0.537389        -0.290587
 C        -0.832831        -1.259778         0.568651
 C         0.063541         0.117560         0.575665
 O         1.153153         0.165657         1.113039
 C        -1.078830         0.418001        -1.416200
 O        -1.846914         1.242418        -2.330836
 H         0.092391         2.610935         1.203606
 H         0.439469         2.887002        -0.567270
 H        -1.335867         3.257677         0.212831
 H        -2.412017         0.872206         1.507026
 H        -3.167488         1.440813        -0.078189
 H        -2.726033        -1.158623        -0.728851
 H        -1.210814        -1.354930         1.655191
 H        -0.262981        -2.159490         0.146504
 H        -0.247979        -0.082671        -2.034716
 H        -2.358835         0.648473        -2.829464
