19
Iteration:  4272
 C        -0.175925         2.692459        -0.091944
 C        -0.675577         1.204904        -0.093437
 C        -2.223680         0.860738         0.340259
 C        -1.854783        -0.438907        -0.515803
 C        -0.777331        -1.216465         0.306335
 C        -0.088812         0.076688         0.831535
 O         0.596843         0.265784         1.796653
 C        -0.973204         0.440695        -1.387119
 O        -1.865076         0.952896        -2.408109
 H         0.940622         2.793351        -0.007762
 H        -0.561349         3.317374        -0.916521
 H        -0.702698         3.129216         0.789658
 H        -2.382380         0.778209         1.449022
 H        -2.746849         1.751217        -0.218881
 H        -2.749567        -0.987680        -0.968406
 H        -1.215380        -1.838866         1.089339
 H        -0.084422        -1.744128        -0.302110
 H        -0.134853         0.026965        -1.891462
 H        -1.328806         1.835017        -2.574079
