19
Iteration:  2540charge 0 multiplicity 1
 C        -0.265876         2.556469         0.071766
 C        -0.709012         1.156621         0.008529
 C        -2.260722         0.796707         0.351542
 C        -1.914729        -0.494840        -0.527675
 C        -0.854535        -1.141561         0.344547
 C         0.006580         0.135263         0.743682
 O         0.869582         0.390107         1.583398
 C        -1.073522         0.344890        -1.409764
 O        -1.809840         1.106812        -2.406188
 H         0.471917         2.830803        -0.704416
 H        -1.113237         3.305409        -0.014084
 H         0.307964         2.755792         0.987438
 H        -2.601664         0.857758         1.319796
 H        -2.825690         1.437181        -0.240274
 H        -2.789151        -1.141729        -0.900340
 H        -1.112129        -1.819476         1.176635
 H        -0.126153        -1.747492        -0.206462
 H        -0.304000        -0.316038        -1.934418
 H        -2.474933         1.658283        -1.977931
