19
Iteration:  1948
 C        -0.306757         2.663052         0.115167
 C        -0.799550         1.174761        -0.054888
 C        -2.189567         0.776233         0.372981
 C        -1.946948        -0.507326        -0.418785
 C        -0.848849        -1.133126         0.431487
 C         0.016100         0.092293         0.737629
 O         1.136059         0.244355         1.234235
 C        -1.175101         0.384222        -1.354201
 O        -1.931295         1.222606        -2.229734
 H         0.436593         2.639218         1.021973
 H         0.247056         3.036986        -0.733987
 H        -1.182077         3.265057         0.303490
 H        -2.462681         0.652827         1.398864
 H        -2.858042         1.429894        -0.180387
 H        -2.742868        -1.178355        -0.769269
 H        -1.271512        -1.608222         1.319103
 H        -0.215226        -1.771081        -0.219255
 H        -0.367641         0.011583        -1.951398
 H        -2.321401         0.667485        -2.882150
