19
Iteration:   759charge 0 multiplicity 1
 C        -0.251747         2.623456         0.026284
 C        -0.761898         1.198405         0.168732
 C        -2.116280         0.795052         0.792375
 C        -2.089052        -0.498020        -0.031585
 C        -0.852746        -1.196902         0.532423
 C         0.230385         0.060805         0.382891
 O         1.392168         0.050669         0.010625
 C        -1.366488         0.462489        -1.120522
 O        -2.213222         1.383846        -1.820083
 H        -0.169217         3.111771         1.049871
 H         0.758406         2.549302        -0.472140
 H        -0.936525         3.171758        -0.519102
 H        -2.262777         0.725594         1.930745
 H        -2.846616         1.554899         0.497833
 H        -3.001220        -1.055783        -0.236725
 H        -0.996177        -1.511919         1.671972
 H        -0.626052        -2.114423        -0.055538
 H        -0.701689         0.021307        -1.860518
 H        -2.056673         1.265394        -2.756370
