19
Iteration:  4161
 C        -0.503361         2.739967         0.144297
 C        -0.940795         1.299264         0.077594
 C        -2.369186         0.846794         0.292555
 C        -1.927390        -0.468336        -0.529836
 C        -0.966092        -1.069367         0.614208
 C        -0.148671         0.123566         0.810417
 O         1.010091         0.116015         1.269792
 C        -0.912605         0.351615        -1.306402
 O        -1.431078         0.974565        -2.530229
 H         0.378525         2.972555        -0.363562
 H        -1.301024         3.308019        -0.331936
 H        -0.333876         3.104324         1.179346
 H        -2.671403         0.784156         1.393261
 H        -3.066476         1.668161        -0.232456
 H        -2.693394        -1.167839        -0.783884
 H        -1.660942        -1.427839         1.361149
 H        -0.292886        -1.898160         0.437332
 H        -0.098337        -0.240934        -1.665678
 H        -0.772858         1.567992        -2.739524
