19
Iteration:   581charge 0 multiplicity 1
 C        -0.178018         2.534374        -0.171775
 C        -0.649167         1.100253        -0.083375
 C        -1.938550         0.785419         0.956343
 C        -2.057763        -0.443921        -0.040003
 C        -0.685924        -1.267643         0.120947
 C         0.282028        -0.043776         0.233276
 O         1.436267         0.039183         0.611978
 C        -1.576154         0.590032        -1.212686
 O        -2.561986         1.546423        -1.595951
 H         0.541580         2.921387         0.529555
 H         0.220800         2.670768        -1.149872
 H        -1.141780         3.220359        -0.141237
 H        -1.598495         0.617113         2.024429
 H        -2.797129         1.452717         0.730878
 H        -2.953027        -1.093174        -0.203551
 H        -0.539796        -1.869949         1.003109
 H        -0.401624        -1.820222        -0.878713
 H        -1.043474         0.185127        -2.071606
 H        -3.106956         1.306016        -2.401263
