19
Iteration:  2469charge 0 multiplicity 1
 C        -0.475146         2.664059         0.105757
 C        -0.867622         1.206693         0.147277
 C        -2.337469         0.825392         0.331760
 C        -1.993173        -0.498329        -0.386518
 C        -0.974036        -1.212396         0.525881
 C        -0.006706         0.110240         0.779736
 O         1.154204         0.266027         1.162721
 C        -1.024001         0.371641        -1.339541
 O        -1.541403         1.138985        -2.432666
 H         0.482242         2.931933         0.581368
 H        -0.419048         2.947818        -0.929059
 H        -1.155714         3.347585         0.661827
 H        -2.997187         0.883001         1.279962
 H        -3.052451         1.436985        -0.359460
 H        -2.699601        -0.952387        -1.017816
 H        -1.403332        -1.896712         1.285080
 H        -0.349831        -2.025345        -0.027743
 H        -0.029135        -0.002048        -1.486844
 H        -2.496756         1.253047        -2.315382
