19
Iteration:  4914charge 0 multiplicity 1
 C        -0.257773         2.627976         0.147275
 C        -0.765054         1.269624        -0.036971
 C        -2.271311         0.794442         0.361977
 C        -1.944590        -0.485279        -0.540163
 C        -0.884562        -1.132227         0.370223
 C        -0.084243         0.167349         0.763001
 O         0.843406         0.310953         1.488564
 C        -1.003021         0.362629        -1.332741
 O        -1.738831         0.991117        -2.434301
 H        -1.057005         3.227294         0.645614
 H         0.703045         2.811614         0.654691
 H        -0.098994         3.180003        -0.864485
 H        -2.585357         0.470627         1.508751
 H        -3.047251         1.437618        -0.039208
 H        -2.677565        -1.099658        -0.861976
 H        -1.324004        -1.590458         1.277670
 H        -0.212292        -1.948170         0.086967
 H        -0.201534        -0.132301        -1.823027
 H        -1.124571         1.566273        -2.914584
