19
Iteration:   486charge 0 multiplicity 1
 C        -0.027602         2.634361         0.197545
 C        -0.778848         1.190627         0.088097
 C        -2.025976         0.759876         0.949368
 C        -2.059428        -0.474680         0.014836
 C        -0.783271        -1.194695         0.394223
 C         0.194954         0.075053         0.244017
 O         1.352527         0.134891        -0.137914
 C        -1.563315         0.424151        -1.107753
 O        -2.327234         1.353493        -1.751007
 H        -0.391381         3.362785        -0.534798
 H        -0.188851         2.956726         1.276322
 H         0.995723         2.345209         0.019382
 H        -1.907326         0.597262         2.005892
 H        -2.909927         1.338057         0.664913
 H        -3.085297        -0.926444        -0.108648
 H        -0.857450        -1.436603         1.493249
 H        -0.482976        -1.968455        -0.262314
 H        -0.806218        -0.011205        -1.848533
 H        -2.724138         0.970010        -2.548399
