19
Iteration:  4108charge 0 multiplicity 1
 C        -0.308064         2.631900         0.163816
 C        -0.913027         1.341677         0.032580
 C        -2.391099         0.820669         0.179022
 C        -1.887916        -0.536693        -0.529236
 C        -0.940043        -1.106601         0.582893
 C        -0.171873         0.184348         0.880023
 O         0.981300         0.235670         1.335909
 C        -0.926781         0.323316        -1.357255
 O        -1.619469         1.030161        -2.427981
 H         0.739141         2.641010         0.429661
 H        -0.591686         3.369064        -0.593384
 H        -0.830419         2.977155         1.004347
 H        -2.853677         0.832489         1.243857
 H        -2.975181         1.441696        -0.659736
 H        -2.620468        -1.252434        -1.029748
 H        -1.344880        -1.468153         1.549948
 H        -0.355976        -1.910925         0.188240
 H        -0.035302        -0.206052        -1.894309
 H        -0.929129         1.429556        -2.858134
