19
Iteration:  4680
 C        -0.520897         2.745855         0.029657
 C        -0.901524         1.272730         0.110492
 C        -2.383784         0.812542         0.389464
 C        -1.971010        -0.428706        -0.402323
 C        -0.961745        -1.058160         0.515678
 C        -0.147516         0.190811         0.801213
 O         0.966114         0.124439         1.356093
 C        -0.928736         0.274615        -1.352632
 O        -1.379673         1.028387        -2.570588
 H         0.313707         2.813417        -0.742710
 H        -1.436438         3.367980        -0.146159
 H        -0.242290         3.008890         1.078072
 H        -2.658624         0.684088         1.421287
 H        -3.171740         1.464979         0.007718
 H        -2.677871        -1.132485        -0.979917
 H        -1.410784        -1.484951         1.381439
 H        -0.297547        -1.819620         0.214735
 H         0.022830        -0.194078        -1.599587
 H        -0.510452         1.138804        -2.975607
