19
Iteration:  2420
 C        -0.376771         2.749976         0.166194
 C        -0.843585         1.302488         0.095878
 C        -2.362427         0.705344         0.356858
 C        -1.952065        -0.520507        -0.452344
 C        -0.998927        -1.132776         0.554127
 C        -0.060473         0.099503         0.754352
 O         1.106375         0.234087         1.108898
 C        -1.000307         0.427743        -1.342482
 O        -1.579060         1.109006        -2.430044
 H         0.199309         2.856111         1.096101
 H         0.264526         3.061329        -0.698182
 H        -1.186643         3.429196         0.310624
 H        -2.542455         0.448183         1.453924
 H        -3.231864         1.270756         0.103335
 H        -2.640876        -1.317951        -0.879038
 H        -1.581628        -1.413508         1.422232
 H        -0.430505        -1.986513         0.407105
 H        -0.123097        -0.143884        -1.647802
 H        -2.486811         0.743187        -2.705087
