19
Iteration:   487charge 0 multiplicity 1
 C        -0.028303         2.624456         0.193623
 C        -0.767181         1.201588         0.092360
 C        -2.032353         0.759121         0.942353
 C        -2.060595        -0.471262         0.019092
 C        -0.780849        -1.197976         0.396441
 C         0.198718         0.074364         0.242856
 O         1.347676         0.137959        -0.140861
 C        -1.550681         0.416323        -1.101519
 O        -2.332194         1.360969        -1.758655
 H        -0.419734         3.380288        -0.498735
 H        -0.176569         2.898420         1.301026
 H         0.943658         2.355064         0.010565
 H        -1.895865         0.598795         2.043262
 H        -2.923476         1.341379         0.642621
 H        -3.067374        -0.918668        -0.132717
 H        -0.858934        -1.449624         1.505955
 H        -0.509690        -1.956576        -0.252848
 H        -0.835422        -0.047346        -1.831207
 H        -2.723754         0.954520        -2.520756
