19
Iteration:  4226charge 0 multiplicity 1
 C        -0.182069         2.575063         0.020236
 C        -0.776063         1.185171        -0.063458
 C        -2.317607         0.788600         0.194529
 C        -1.909171        -0.545402        -0.565544
 C        -0.930676        -1.128356         0.528234
 C        -0.132213         0.144908         0.866024
 O         0.822739         0.347758         1.568379
 C        -1.013042         0.369018        -1.388458
 O        -1.709428         1.148733        -2.343376
 H         0.874261         2.601065        -0.300462
 H        -0.784442         3.325261        -0.585458
 H        -0.312423         3.107790         1.119080
 H        -2.595241         0.648762         1.191882
 H        -3.114295         1.150212        -0.503853
 H        -2.402693        -1.422949        -0.899972
 H        -1.410227        -1.680267         1.341007
 H        -0.196594        -1.763711         0.021733
 H        -0.172906        -0.181163        -1.769578
 H        -1.050412         1.619801        -2.973553
