19
Iteration:  4582
 C        -0.127716         2.552503        -0.020770
 C        -0.764796         1.193102        -0.023716
 C        -2.204315         0.757217         0.306395
 C        -1.812445        -0.521644        -0.595994
 C        -0.842610        -1.104594         0.422641
 C        -0.095241         0.174020         0.762186
 O         0.659617         0.359371         1.780117
 C        -1.004222         0.424441        -1.430299
 O        -1.905381         1.051173        -2.437474
 H         0.982660         2.361057         0.347885
 H        -0.132336         3.018498        -1.045530
 H        -0.468061         3.103078         0.877038
 H        -2.555755         0.589809         1.280349
 H        -2.815185         1.387205        -0.288208
 H        -2.627589        -1.170145        -1.025344
 H        -1.189345        -1.505470         1.380500
 H        -0.094158        -1.827799         0.062134
 H        -0.027813        -0.012712        -1.817693
 H        -1.417243         1.800253        -2.958536
