19
Iteration:  3089charge 0 multiplicity 1
 C        -0.355583         2.681956         0.035848
 C        -0.915888         1.249879        -0.040495
 C        -2.298040         0.735152         0.290573
 C        -1.898309        -0.521863        -0.483551
 C        -0.907626        -1.110466         0.547834
 C        -0.066597         0.120980         0.791992
 O         0.839342         0.258905         1.576905
 C        -0.935186         0.414514        -1.398288
 O        -1.551408         1.022627        -2.561402
 H         0.321965         2.816320        -0.805905
 H        -1.134561         3.408916         0.114013
 H         0.236974         2.945327         1.002526
 H        -2.463839         0.744786         1.417638
 H        -3.219362         1.280332        -0.240393
 H        -2.700949        -1.088833        -1.067341
 H        -1.427380        -1.418234         1.458915
 H        -0.241899        -1.924192         0.281861
 H        -0.017988         0.071129        -1.767826
 H        -1.902897         1.822796        -2.242607
