19
Iteration:  2063charge 0 multiplicity 1
 C        -0.165119         2.549963        -0.018959
 C        -0.797582         1.231183        -0.125095
 C        -2.183670         0.735404         0.445795
 C        -1.892871        -0.581888        -0.430222
 C        -0.735160        -1.141570         0.342976
 C         0.068534         0.129039         0.661685
 O         0.899249         0.234081         1.541438
 C        -1.145005         0.455793        -1.491692
 O        -2.042648         1.300879        -2.206705
 H         0.856948         2.641208        -0.299749
 H        -0.685058         3.335852        -0.688005
 H        -0.268047         2.984989         1.008157
 H        -2.197836         0.602448         1.540611
 H        -3.039783         1.292713         0.134248
 H        -2.684204        -1.225944        -0.823995
 H        -0.927254        -1.552800         1.351966
 H        -0.076119        -1.858237        -0.235476
 H        -0.311891         0.073801        -2.085694
 H        -2.642079         0.632154        -2.535471
