19
Iteration:  1216charge 0 multiplicity 1
 C        -0.226440         2.490731        -0.329921
 C        -0.703329         1.166207        -0.145110
 C        -1.956771         0.755681         0.733718
 C        -1.893711        -0.475181        -0.292678
 C        -0.614627        -1.177925         0.094581
 C         0.201283         0.072642         0.491049
 O         1.048294         0.139449         1.374383
 C        -1.406147         0.465399        -1.381753
 O        -2.334237         1.477316        -1.855704
 H        -0.971552         3.269038        -0.347652
 H         0.447550         2.629971         0.514652
 H         0.263805         2.687482        -1.290389
 H        -1.789879         0.730530         1.782383
 H        -2.863949         1.365182         0.581690
 H        -2.722538        -1.197118        -0.417767
 H        -0.903565        -1.910537         0.911664
 H        -0.076869        -1.908254        -0.652108
 H        -0.833249        -0.079208        -2.204861
 H        -3.254928         0.998264        -1.873679
