19
Iteration:   446
 C        -0.205702         2.569581        -0.016950
 C        -0.736563         1.209090         0.057579
 C        -1.900862         0.742519         0.999010
 C        -2.059729        -0.404996        -0.039258
 C        -0.716799        -1.196092         0.255683
 C         0.279128        -0.044643         0.248654
 O         1.509556        -0.036732         0.170435
 C        -1.562602         0.636544        -1.120526
 O        -2.597372         1.416359        -1.684282
 H         0.398402         2.713369        -0.939759
 H        -1.025494         3.336448        -0.175118
 H         0.359958         2.922100         0.815353
 H        -1.801884         0.545438         2.151514
 H        -2.666125         1.531374         0.778677
 H        -2.879662        -1.079336         0.009677
 H        -0.903789        -1.779933         1.190343
 H        -0.352874        -1.964493        -0.415181
 H        -0.912616         0.237464        -1.860893
 H        -2.450859         1.331715        -2.630758
