19
Iteration:   502
 C        -0.103193         2.495930         0.217274
 C        -0.774368         1.162378         0.153923
 C        -2.077469         0.862193         0.898628
 C        -2.051709        -0.430034         0.046425
 C        -0.735710        -1.181904         0.462742
 C         0.176724         0.022061         0.207347
 O         1.359630         0.118249        -0.147211
 C        -1.427961         0.480762        -1.131419
 O        -2.366349         1.386129        -1.814997
 H        -0.840907         3.311900         0.058861
 H         0.272703         2.693625         1.236223
 H         0.780104         2.724492        -0.492193
 H        -2.053314         0.718079         2.079482
 H        -2.849322         1.645702         0.741717
 H        -2.827566        -1.155593        -0.080265
 H        -0.659493        -1.652004         1.439047
 H        -0.441045        -2.032493        -0.260090
 H        -0.879369        -0.057232        -1.873981
 H        -2.944926         0.816404        -2.417225
