19
Iteration:  4865
 C        -0.106449         2.569365        -0.091619
 C        -0.741893         1.238289        -0.148169
 C        -2.218735         0.703884         0.238146
 C        -1.796535        -0.552713        -0.552006
 C        -0.795348        -1.120503         0.374318
 C        -0.124010         0.164525         0.826198
 O         0.674406         0.336972         1.768641
 C        -1.039069         0.428778        -1.394389
 O        -1.906402         1.111823        -2.239277
 H        -0.127092         2.942918         0.897285
 H         0.905610         2.565381        -0.390222
 H        -0.515418         3.276791        -0.702128
 H        -2.640737         0.769425         1.212897
 H        -2.889257         1.303538        -0.424030
 H        -2.477392        -1.390098        -1.025949
 H        -1.265329        -1.689880         1.150460
 H        -0.216948        -1.898827        -0.109477
 H        -0.254865        -0.067555        -2.017942
 H        -1.431160         1.842303        -2.740741
