19
Iteration:   601
 C        -0.056964         2.548905        -0.331496
 C        -0.694651         1.192156        -0.107263
 C        -1.808215         0.647742         0.894768
 C        -2.016030        -0.515424        -0.113400
 C        -0.670737        -1.224365         0.041993
 C         0.226799         0.028729         0.283682
 O         1.324344         0.111461         0.777911
 C        -1.709203         0.487748        -1.160796
 O        -2.554852         1.578760        -1.518091
 H         0.950487         2.383462        -0.001101
 H        -0.014627         2.828137        -1.334790
 H        -0.419053         3.422717         0.263723
 H        -1.525705         0.266283         1.999270
 H        -2.670971         1.376389         0.842398
 H        -2.887713        -1.173720        -0.062530
 H        -0.736441        -1.960300         0.799027
 H        -0.455989        -1.722469        -0.983994
 H        -1.258520         0.173047        -2.104898
 H        -3.026344         1.399496        -2.327087
