19
Iteration:  3338
 C        -0.440850         2.769554         0.236205
 C        -0.924534         1.279373         0.015450
 C        -2.394767         0.750169         0.179392
 C        -1.904534        -0.557612        -0.534572
 C        -0.969069        -1.096698         0.620249
 C        -0.115545         0.140735         0.813645
 O         0.983544         0.275397         1.324651
 C        -0.935100         0.310206        -1.373733
 O        -1.414581         1.045114        -2.520411
 H         0.603632         2.801844        -0.075809
 H        -0.980537         3.490103        -0.297762
 H        -0.433414         2.843113         1.382290
 H        -2.733456         0.466678         1.208788
 H        -3.410651         1.228316        -0.142488
 H        -2.638548        -1.215364        -1.214134
 H        -1.402237        -1.443672         1.636900
 H        -0.186539        -1.945120         0.416033
 H        -0.006924        -0.033229        -1.688640
 H        -2.161873         1.542177        -2.255655
