19
Iteration:  1362charge 0 multiplicity 1
 C        -0.422323         2.777033         0.147740
 C        -0.769675         1.241949         0.247901
 C        -2.233966         0.707837         0.618273
 C        -1.983226        -0.522280        -0.250156
 C        -0.831947        -1.141903         0.506769
 C         0.065730         0.110764         0.559945
 O         1.272425         0.020211         0.534762
 C        -1.220213         0.457496        -1.309983
 O        -1.910995         1.258580        -2.206356
 H         0.503623         3.027326         0.724370
 H        -0.156003         3.016133        -0.891164
 H        -1.249964         3.359296         0.542576
 H        -2.364986         0.497019         1.685834
 H        -2.981928         1.384044         0.187422
 H        -2.770235        -1.195533        -0.527871
 H        -1.251471        -1.562697         1.473127
 H        -0.157081        -1.976756        -0.032888
 H        -0.436498        -0.217916        -1.689217
 H        -2.632881         1.647082        -1.668521
