19
Iteration:  2704charge 0 multiplicity 1
 C        -0.452278         2.679888         0.240765
 C        -0.941762         1.255774        -0.068721
 C        -2.456977         0.904198         0.239730
 C        -1.981381        -0.450095        -0.402243
 C        -0.919482        -1.143006         0.471468
 C         0.004249         0.099481         0.725036
 O         1.094343         0.216111         1.271412
 C        -1.025269         0.398700        -1.258608
 O        -1.441324         0.960718        -2.434098
 H        -1.306096         3.317334         0.343133
 H         0.218571         2.735334         1.144068
 H         0.013200         3.089192        -0.663390
 H        -2.752985         1.067188         1.291302
 H        -3.229103         1.480509        -0.365299
 H        -2.688810        -1.149487        -1.027701
 H        -1.076055        -1.555559         1.507670
 H        -0.377610        -1.962841        -0.044818
 H        -0.004657         0.069838        -1.384059
 H        -2.426651         1.146026        -2.246666
