19
Iteration:  4097
 C        -0.257043         2.648759         0.153055
 C        -0.896709         1.193497        -0.011568
 C        -2.406195         0.755507         0.138831
 C        -1.892612        -0.529963        -0.461484
 C        -0.928046        -1.090453         0.582940
 C        -0.125760         0.193146         0.827301
 O         0.930787         0.261623         1.389050
 C        -0.945898         0.405024        -1.354407
 O        -1.648800         1.058933        -2.427908
 H         0.767493         2.459970         0.443082
 H        -0.245723         3.321191        -0.724533
 H        -0.705885         3.141144         0.975539
 H        -2.877986         0.695834         1.186750
 H        -3.169970         1.368076        -0.516315
 H        -2.657411        -1.202875        -0.919420
 H        -1.534935        -1.509019         1.393383
 H        -0.165210        -1.784283         0.281249
 H         0.083444        -0.054240        -1.610949
 H        -1.055242         1.539172        -3.053106
