19
Iteration:  3373charge 0 multiplicity 1
 C        -0.443699         2.566129         0.126731
 C        -0.768397         1.182499        -0.008719
 C        -2.366896         0.867633         0.243164
 C        -1.943089        -0.476471        -0.514669
 C        -0.822066        -1.133844         0.425629
 C        -0.086184         0.104510         0.792298
 O         0.863902         0.348404         1.555859
 C        -0.980272         0.428777        -1.314159
 O        -1.547676         0.975817        -2.514022
 H         0.637503         2.808389        -0.042412
 H        -1.071037         3.342048        -0.409268
 H        -0.672139         2.825755         1.224838
 H        -2.622837         0.699640         1.307429
 H        -3.079206         1.432599        -0.410462
 H        -2.656149        -1.103669        -1.064074
 H        -1.086106        -1.661898         1.381932
 H        -0.033711        -1.660464        -0.151112
 H        -0.112230        -0.152203        -1.708465
 H        -1.905433         1.818955        -2.471347
