19
Iteration:  3323
 C        -0.461967         2.613564         0.198307
 C        -0.901923         1.223191         0.046562
 C        -2.454641         0.697827         0.206468
 C        -1.862348        -0.526093        -0.516558
 C        -0.959761        -1.079860         0.620201
 C        -0.132174         0.227765         0.833215
 O         0.970140         0.246026         1.232817
 C        -0.889633         0.483913        -1.312943
 O        -1.389171         1.039893        -2.475158
 H         0.587121         2.768205        -0.117833
 H        -1.193052         3.258407        -0.334607
 H        -0.544434         2.939613         1.182268
 H        -2.856087         0.726702         1.228838
 H        -2.937148         1.358079        -0.480562
 H        -2.472286        -1.322791        -0.896839
 H        -1.684703        -1.261445         1.393886
 H        -0.377989        -1.962370         0.350970
 H         0.066217        -0.078848        -1.528297
 H        -2.390349         1.327146        -2.502362
