19
Iteration:   597
 C        -0.076915         2.552266        -0.307998
 C        -0.689499         1.193600        -0.109944
 C        -1.849046         0.643784         0.904483
 C        -2.003271        -0.496064        -0.080203
 C        -0.677915        -1.239033         0.022559
 C         0.231883         0.020336         0.288513
 O         1.363163         0.103201         0.752438
 C        -1.682202         0.488509        -1.169110
 O        -2.557489         1.594535        -1.528037
 H         0.951825         2.456450         0.181247
 H         0.023426         2.870535        -1.417583
 H        -0.598818         3.320125         0.192419
 H        -1.667994         0.379122         1.921255
 H        -2.645269         1.358844         0.881024
 H        -2.950828        -1.028110        -0.030480
 H        -0.740793        -2.021824         0.833822
 H        -0.465715        -1.776493        -0.841793
 H        -1.328494         0.044768        -2.166298
 H        -2.982483         1.295272        -2.387727
