19
Iteration:  3937charge 0 multiplicity 1
 C        -0.282911         2.550652         0.116091
 C        -0.849838         1.186085        -0.038025
 C        -2.332025         0.806908         0.166383
 C        -1.827559        -0.519726        -0.540733
 C        -0.972225        -1.097019         0.485751
 C        -0.155473         0.193274         0.867393
 O         0.881414         0.348711         1.513234
 C        -0.937076         0.352426        -1.368017
 O        -1.685660         1.050527        -2.393644
 H         0.605430         2.555518        -0.539052
 H        -0.889671         3.388516        -0.120753
 H         0.171237         2.711097         1.148373
 H        -2.670264         0.642239         1.188398
 H        -3.045259         1.394663        -0.406303
 H        -2.768397        -1.055237        -0.900230
 H        -1.520802        -1.585024         1.364593
 H        -0.197578        -1.774496         0.032010
 H         0.013367        -0.043552        -1.856513
 H        -1.024569         1.718669        -2.755633
