19
Iteration:  1967charge 0 multiplicity 1
 C        -0.237821         2.527304        -0.040720
 C        -0.770545         1.190645         0.013182
 C        -2.244194         0.796905         0.479755
 C        -1.935571        -0.468790        -0.452531
 C        -0.743932        -1.167689         0.298722
 C         0.027135         0.128673         0.647919
 O         0.980415         0.254492         1.389390
 C        -1.094950         0.454749        -1.368312
 O        -2.002601         1.211415        -2.142995
 H         0.624083         2.802759         0.529654
 H         0.021691         2.801767        -1.057999
 H        -0.979124         3.291778         0.159376
 H        -2.417281         0.551631         1.634088
 H        -3.031492         1.443432         0.074992
 H        -2.744050        -1.096511        -0.867554
 H        -0.977154        -1.656736         1.215025
 H        -0.174265        -1.818114        -0.316135
 H        -0.225712        -0.041547        -1.922831
 H        -2.220535         0.744367        -2.985912
