19
Iteration:  3779charge 0 multiplicity 1
 C        -0.255446         2.648854         0.006917
 C        -0.737183         1.199518        -0.154930
 C        -2.225102         0.840154         0.275820
 C        -1.952112        -0.506351        -0.500116
 C        -0.870156        -1.173050         0.455086
 C        -0.128825         0.169440         0.838323
 O         0.724834         0.296326         1.698925
 C        -0.918133         0.407543        -1.411246
 O        -1.736294         1.012552        -2.391543
 H         0.310050         3.049238        -0.894334
 H        -1.199262         3.323459         0.183546
 H         0.375777         2.646333         0.908180
 H        -2.496085         0.797839         1.249626
 H        -2.899126         1.387474        -0.338885
 H        -2.631320        -1.112598        -1.046933
 H        -1.091593        -1.855545         1.293997
 H        -0.390387        -1.829688        -0.300126
 H        -0.024075        -0.093613        -1.912969
 H        -1.210444         1.721206        -2.835274
