19
Iteration:   867charge 0 multiplicity 1
 C        -0.008034         2.579214        -0.219654
 C        -0.713495         1.170932        -0.097170
 C        -1.953638         0.755689         0.845559
 C        -1.990375        -0.487862        -0.171244
 C        -0.720201        -1.196967         0.199099
 C         0.211945         0.044076         0.389558
 O         1.334974         0.121221         0.869411
 C        -1.584604         0.504683        -1.295804
 O        -2.569333         1.363442        -1.762803
 H         0.443308         2.773014        -1.212466
 H        -0.746346         3.365137         0.020245
 H         0.744150         2.670137         0.603566
 H        -1.762343         0.616813         1.990952
 H        -2.912023         1.294982         0.693707
 H        -2.913831        -1.044130        -0.248943
 H        -1.018682        -1.699777         1.067954
 H        -0.256591        -1.905742        -0.434575
 H        -1.089944        -0.015893        -2.176270
 H        -2.121101         1.767227        -2.484443
