19
Iteration:  1454charge 0 multiplicity 1
 C        -0.027777         2.644510        -0.075396
 C        -0.636496         1.188101        -0.083394
 C        -2.046483         0.733610         0.519887
 C        -1.898543        -0.460872        -0.375978
 C        -0.652607        -1.268319         0.093844
 C         0.153047         0.057098         0.554115
 O         0.985957         0.207525         1.401555
 C        -1.334372         0.559686        -1.364646
 O        -2.459522         1.219132        -1.901144
 H         0.475454         2.604218        -0.997003
 H        -0.804167         3.378227        -0.251219
 H         0.612325         2.784875         0.806039
 H        -1.930119         0.647059         1.598947
 H        -2.869258         1.362606         0.120532
 H        -2.872642        -0.991606        -0.633135
 H        -0.978800        -1.768856         1.042712
 H        -0.030165        -1.885830        -0.565113
 H        -0.778966         0.281207        -2.191931
 H        -2.415662         1.329095        -2.810197
