19
Iteration:   963
 C         0.013008         2.616761        -0.108632
 C        -0.665334         1.205559        -0.084731
 C        -1.899765         0.786186         0.789770
 C        -2.041466        -0.475487        -0.160892
 C        -0.725727        -1.218713         0.195072
 C         0.223825        -0.004317         0.391750
 O         1.262328         0.152740         1.026298
 C        -1.549204         0.510715        -1.332148
 O        -2.579148         1.301377        -1.998926
 H        -0.602193         3.339180         0.347475
 H         1.074201         2.567932         0.171226
 H         0.185961         2.992980        -1.226691
 H        -1.795602         0.628824         1.858607
 H        -2.674872         1.519491         0.764143
 H        -2.918818        -1.135230        -0.108298
 H        -0.586110        -1.937205         1.002832
 H        -0.270180        -1.736035        -0.785077
 H        -0.809874         0.125987        -2.039622
 H        -3.282281         1.333737        -1.381933
