19
Iteration:  4918charge 0 multiplicity 1
 C        -0.278476         2.676478         0.151008
 C        -0.779039         1.270379        -0.024227
 C        -2.272741         0.790350         0.388576
 C        -1.959200        -0.483289        -0.526794
 C        -0.882484        -1.149956         0.392556
 C        -0.072807         0.170354         0.757637
 O         0.842335         0.286286         1.458820
 C        -0.996290         0.384538        -1.356262
 O        -1.712108         0.977051        -2.429263
 H        -1.080742         3.299797         0.609248
 H         0.688794         2.837603         0.713512
 H        -0.147495         3.114891        -0.874119
 H        -2.532227         0.531954         1.336487
 H        -3.009315         1.489638         0.001288
 H        -2.768877        -1.182266        -0.950406
 H        -1.349537        -1.545972         1.356934
 H        -0.243207        -1.975914        -0.029032
 H        -0.133214        -0.262773        -1.757038
 H        -1.093636         1.583209        -2.938827
