19
Iteration:  3798charge 0 multiplicity 1
 C        -0.243635         2.590723         0.052758
 C        -0.810469         1.215446         0.083521
 C        -2.338146         0.845006         0.149232
 C        -1.812634        -0.493646        -0.538352
 C        -0.814868        -1.147387         0.504511
 C        -0.138507         0.138019         0.773506
 O         0.756051         0.320247         1.560870
 C        -0.998124         0.365938        -1.388681
 O        -1.718159         1.067798        -2.380996
 H         0.305076         2.695564        -0.895318
 H        -0.948639         3.423800         0.204723
 H         0.576454         2.678883         0.935169
 H        -2.701078         0.864854         1.213606
 H        -2.878057         1.468265        -0.532054
 H        -2.672833        -1.170967        -0.889942
 H        -1.535785        -1.515002         1.235412
 H        -0.155055        -2.017175         0.303250
 H        -0.119062        -0.122249        -1.754403
 H        -1.083558         1.329576        -2.998693
