19
Iteration:  1102
 C        -0.286926         2.588646         0.067726
 C        -0.790288         1.210799         0.045506
 C        -2.120715         0.790707         0.796799
 C        -2.032317        -0.421376        -0.180852
 C        -0.773864        -1.103479         0.382867
 C         0.111785         0.101547         0.429509
 O         1.316227         0.040016         0.556889
 C        -1.346974         0.490320        -1.222537
 O        -2.095220         1.256135        -2.076676
 H         0.492333         2.771713        -0.655773
 H        -1.149881         3.253849        -0.037924
 H         0.237431         2.794982         0.990020
 H        -2.053623         0.688584         1.894876
 H        -2.860785         1.526974         0.523453
 H        -2.807923        -1.239349        -0.347229
 H        -1.010375        -1.360958         1.396800
 H        -0.311988        -1.936322        -0.026760
 H        -0.632915         0.020516        -1.864365
 H        -3.033444         0.869442        -2.078364
