19
Iteration:  2051charge 0 multiplicity 1
 C        -0.155076         2.694114        -0.066675
 C        -0.647082         1.163247        -0.158860
 C        -2.141236         0.724675         0.435167
 C        -1.836771        -0.521785        -0.419406
 C        -0.653977        -1.241484         0.327514
 C        -0.037320         0.070574         0.647535
 O         0.779774         0.278328         1.504809
 C        -1.185856         0.440775        -1.376743
 O        -2.050736         1.300614        -2.132948
 H         0.946194         2.631076        -0.143872
 H        -0.674100         3.294743        -0.909006
 H        -0.414360         3.060923         0.971173
 H        -2.349439         0.616268         1.470907
 H        -2.834655         1.359166        -0.066725
 H        -2.622835        -1.207517        -0.735404
 H        -1.056066        -1.855544         1.183144
 H         0.038525        -1.925226        -0.307083
 H        -0.547325        -0.054161        -2.089971
 H        -2.742849         0.877984        -2.644119
