19
Iteration:  1082
 C        -0.378783         2.744543         0.078618
 C        -0.792122         1.296993         0.175155
 C        -2.143394         0.832202         0.776901
 C        -2.064174        -0.447742        -0.086417
 C        -0.874935        -1.255918         0.531685
 C         0.176174        -0.020344         0.488768
 O         1.401919         0.028742         0.344372
 C        -1.273686         0.466049        -1.203497
 O        -2.060334         1.303059        -2.119296
 H         0.558342         2.777657        -0.340456
 H        -1.127274         3.175619        -0.574084
 H        -0.383671         3.307426         1.043029
 H        -2.205623         0.623479         1.820773
 H        -2.970922         1.427016         0.496049
 H        -2.950512        -0.955816        -0.602980
 H        -0.999145        -1.805905         1.481133
 H        -0.472360        -2.004722        -0.293003
 H        -0.445178         0.003517        -1.776697
 H        -2.718721         0.768371        -2.678393
