19
Iteration:  1842
 C        -0.356956         2.614738         0.031640
 C        -0.850014         1.164251         0.062987
 C        -2.337152         0.717163         0.482544
 C        -2.002836        -0.468902        -0.357763
 C        -0.905871        -1.143809         0.530020
 C         0.107431         0.122869         0.690844
 O         1.271386         0.181772         1.052329
 C        -1.207838         0.404490        -1.426359
 O        -1.836759         1.298605        -2.198297
 H        -1.167557         3.380022         0.139291
 H         0.427933         2.980702         0.716671
 H         0.035891         2.987311        -0.939524
 H        -2.416633         0.356326         1.598474
 H        -3.236662         1.358175         0.207766
 H        -2.863732        -1.116605        -0.550578
 H        -1.403297        -1.697659         1.377590
 H        -0.288234        -1.933280        -0.023196
 H        -0.278876        -0.060733        -1.945055
 H        -1.589991         1.146585        -3.084803
