19
Iteration:  1464
 C        -0.033881         2.696302        -0.149142
 C        -0.652173         1.214668        -0.099746
 C        -2.006147         0.781933         0.576630
 C        -1.855950        -0.538939        -0.424973
 C        -0.670834        -1.254388         0.129892
 C         0.121264         0.067035         0.566483
 O         0.978647         0.166466         1.449726
 C        -1.309326         0.506063        -1.411842
 O        -2.498026         1.258323        -1.882040
 H         0.494360         2.865382        -1.025795
 H        -0.680709         3.496862         0.092750
 H         0.766990         2.790668         0.625804
 H        -2.200213         0.570010         1.613647
 H        -2.838541         1.404961         0.226325
 H        -2.801326        -1.092149        -0.714573
 H        -0.789739        -2.068706         0.897871
 H        -0.169512        -1.817429        -0.738680
 H        -0.592514         0.185367        -2.096913
 H        -2.484741         1.210937        -2.861946
