19
Iteration:  1139
 C         0.000254         2.564030        -0.036844
 C        -0.657984         1.188940        -0.067898
 C        -2.038941         0.807662         0.682335
 C        -1.957363        -0.520598        -0.204344
 C        -0.728309        -1.242763         0.256869
 C         0.133271         0.014375         0.541179
 O         1.254424         0.238024         0.982754
 C        -1.459542         0.549577        -1.360089
 O        -2.470423         1.245880        -2.044291
 H         0.030952         2.975334        -1.040063
 H        -0.703248         3.234413         0.435152
 H         0.983773         2.585131         0.500417
 H        -2.194452         0.777591         1.736615
 H        -2.886693         1.393713         0.307739
 H        -2.849018        -1.145988        -0.480832
 H        -1.070446        -1.799830         1.181175
 H        -0.149113        -2.043301        -0.502331
 H        -0.754998         0.124965        -2.152225
 H        -2.924850         1.833581        -1.413781
