19
Iteration:   312charge 0 multiplicity 1
 C        -0.071851         2.539304        -0.225606
 C        -0.617809         1.149160        -0.081905
 C        -1.752548         0.698521         0.974754
 C        -2.032248        -0.368387        -0.060135
 C        -0.639703        -1.222421         0.017824
 C         0.285180        -0.052235         0.136549
 O         1.470260        -0.015302         0.484778
 C        -1.729312         0.643183        -1.184057
 O        -2.861155         1.448900        -1.370535
 H        -0.805275         3.060473        -0.833086
 H        -0.201840         2.990330         0.814994
 H         0.940814         2.620744        -0.517402
 H        -1.425453         0.382254         2.050498
 H        -2.518708         1.514411         1.100656
 H        -2.934466        -1.030620        -0.052056
 H        -0.405998        -1.872374         0.877852
 H        -0.336747        -1.698959        -0.899194
 H        -1.331011         0.278318        -2.111903
 H        -2.514503         2.180909        -1.862900
