19
Iteration:   175charge 0 multiplicity 1
 C        -0.100995         2.631808         0.252333
 C        -0.646136         1.228458         0.171376
 C        -1.813572         0.721981         0.951176
 C        -2.055913        -0.447253        -0.034116
 C        -0.693018        -1.196170         0.184074
 C         0.256100         0.033033         0.045195
 O         1.485557        -0.035319        -0.143206
 C        -1.664409         0.541634        -1.079074
 O        -2.747844         1.376945        -1.526763
 H        -0.268126         3.117731         1.219916
 H         0.999872         2.495049         0.180630
 H        -0.405187         3.409595        -0.467758
 H        -1.679286         0.517906         1.978425
 H        -2.592421         1.460385         0.871259
 H        -2.973037        -0.996987        -0.014522
 H        -0.697947        -1.532448         1.258716
 H        -0.323091        -1.994023        -0.507401
 H        -1.134417         0.118803        -1.944921
 H        -2.598551         1.783600        -2.444635
