19
Iteration:    31
 C        -0.028290         2.564978        -0.035533
 C        -0.630687         1.212200        -0.034167
 C        -1.638546         0.645472         1.056554
 C        -1.918130        -0.394382        -0.060079
 C        -0.640778        -1.211399        -0.203965
 C         0.291433        -0.042516         0.036904
 O         1.476880        -0.062883         0.290870
 C        -1.789933         0.666729        -1.181487
 O        -2.949370         1.533169        -1.205491
 H         1.011291         2.562053         0.233534
 H        -0.171121         3.050903        -1.072053
 H        -0.422467         3.279667         0.660347
 H        -1.240359         0.323765         1.998498
 H        -2.517960         1.259645         1.073814
 H        -2.808333        -0.953054         0.217114
 H        -0.778324        -1.791073         0.819665
 H        -0.513981        -1.799899        -1.096643
 H        -1.588413         0.328544        -2.191679
 H        -3.631571         0.939634        -1.626564
