19
Iteration:    77
 C        -0.010049         2.494250        -0.234393
 C        -0.684978         1.156133        -0.075703
 C        -1.619259         0.624337         1.003957
 C        -1.928048        -0.450359        -0.100021
 C        -0.612802        -1.243899        -0.224578
 C         0.289276        -0.011667         0.024281
 O         1.378667         0.038942         0.519865
 C        -1.848893         0.631961        -1.148249
 O        -2.917695         1.544147        -1.157905
 H         0.359420         2.723420        -1.232672
 H        -0.727853         3.257091         0.026434
 H         0.900092         2.743076         0.310154
 H        -1.162236         0.250620         1.886925
 H        -2.539660         1.154411         1.177524
 H        -2.763317        -1.111230        -0.103337
 H        -0.352866        -1.909327         0.624510
 H        -0.542684        -1.572529        -1.248122
 H        -1.519015         0.331031        -2.110013
 H        -2.544095         2.406801        -0.738368
