19
Iteration:  4620charge 0 multiplicity 1
 C        -0.251910         2.572996         0.003776
 C        -0.739237         1.178007        -0.051126
 C        -2.272155         0.767606         0.152143
 C        -1.884398        -0.587415        -0.556688
 C        -0.917824        -1.132727         0.547599
 C        -0.149307         0.189003         0.799693
 O         0.813131         0.369014         1.614376
 C        -0.949649         0.317431        -1.400138
 O        -1.756158         1.164592        -2.285365
 H         0.758000         2.588138        -0.309065
 H        -0.751912         3.384765        -0.505756
 H        -0.254342         2.909131         1.062606
 H        -2.829952         0.799822         1.222400
 H        -2.844346         1.378906        -0.639546
 H        -2.665969        -1.108606        -1.059935
 H        -1.453573        -1.720152         1.339845
 H        -0.072261        -1.722421         0.032896
 H        -0.050180         0.050256        -1.961790
 H        -1.254417         1.257987        -3.044215
