19
Iteration:  2695
 C        -0.399195         2.768197         0.144207
 C        -0.981357         1.287285         0.044517
 C        -2.448618         0.886365         0.258074
 C        -2.039627        -0.487812        -0.392111
 C        -0.842699        -1.200011         0.471386
 C        -0.028646         0.113846         0.705353
 O         1.032763         0.207862         1.289972
 C        -0.945137         0.401287        -1.275828
 O        -1.465822         0.964397        -2.440199
 H        -1.235184         3.391986         0.451380
 H         0.066827         2.567301         1.112622
 H         0.390446         3.199121        -0.571680
 H        -2.690478         0.965704         1.243445
 H        -3.244294         1.331660        -0.231271
 H        -2.705424        -1.190448        -1.048090
 H        -1.112175        -1.503139         1.493699
 H        -0.335123        -1.909481        -0.197109
 H        -0.030451        -0.139548        -1.715409
 H        -2.412122         1.308351        -2.278472
