19
Iteration:  3097
 C        -0.354300         2.656443         0.039314
 C        -0.876767         1.215637        -0.099628
 C        -2.323535         0.846675         0.324191
 C        -1.829305        -0.500189        -0.566303
 C        -0.829053        -1.089862         0.502244
 C        -0.111602         0.134796         0.866403
 O         0.829821         0.235860         1.626290
 C        -1.018967         0.363522        -1.402320
 O        -1.589450         1.028487        -2.527509
 H         0.211362         2.830503        -0.931531
 H        -1.223299         3.347158        -0.102855
 H         0.353481         2.881630         0.941202
 H        -2.513249         0.570000         1.363331
 H        -3.066155         1.442635        -0.174625
 H        -2.509479        -1.284376        -1.005831
 H        -1.466818        -1.503930         1.312763
 H        -0.065721        -1.830286         0.242741
 H        -0.044796        -0.092188        -1.617966
 H        -1.871851         1.892291        -2.244840
