19
Iteration:  2963
 C        -0.470528         2.755134         0.032784
 C        -0.860091         1.218887        -0.005639
 C        -2.360969         0.816524         0.222064
 C        -1.975014        -0.576819        -0.468438
 C        -0.900301        -1.172271         0.487619
 C         0.033264         0.084634         0.794357
 O         0.949964         0.263726         1.550323
 C        -0.998338         0.356497        -1.383923
 O        -1.499437         1.111979        -2.444393
 H         0.533332         2.829490         0.588563
 H        -0.095459         3.168936        -0.987475
 H        -1.147096         3.362302         0.629536
 H        -2.848983         1.109836         1.171656
 H        -2.999177         1.227810        -0.554620
 H        -2.707095        -1.260419        -0.739872
 H        -1.328209        -1.625133         1.402724
 H        -0.286178        -1.934733        -0.088024
 H        -0.081645        -0.183844        -1.832819
 H        -2.326327         1.512691        -2.098552
