19
Iteration:  3361
 C        -0.410094         2.665699         0.241560
 C        -0.861632         1.209133        -0.002328
 C        -2.301098         0.771484         0.240405
 C        -1.913111        -0.481076        -0.480244
 C        -0.860611        -1.108246         0.435301
 C        -0.090052         0.191657         0.799840
 O         0.872873         0.324190         1.455828
 C        -0.999968         0.335163        -1.384281
 O        -1.495564         0.965972        -2.516684
 H         0.584924         2.950552        -0.106319
 H        -1.121829         3.116174        -0.454670
 H        -0.574284         2.996139         1.331001
 H        -2.878646         0.772254         1.191953
 H        -2.962135         1.488255        -0.390372
 H        -2.708258        -1.167334        -0.967107
 H        -1.393035        -1.579223         1.338221
 H        -0.314257        -2.009839         0.009294
 H        -0.040011        -0.059240        -1.649292
 H        -1.854016         1.850803        -2.206910
