19
Iteration:  2179charge 0 multiplicity 1
 C        -0.439485         2.695625         0.114317
 C        -0.861301         1.244706         0.083374
 C        -2.327062         0.745736         0.406017
 C        -1.967869        -0.476157        -0.421878
 C        -0.921118        -1.092085         0.575749
 C        -0.078140         0.163967         0.667315
 O         1.098746         0.100705         0.936516
 C        -0.997941         0.456474        -1.289433
 O        -1.709066         1.143583        -2.195219
 H        -0.097812         2.953839        -0.925535
 H        -1.239651         3.356388         0.321756
 H         0.431244         2.736793         0.710479
 H        -2.460087         0.419855         1.505676
 H        -3.127122         1.409255        -0.023993
 H        -2.516690        -1.368988        -0.735035
 H        -1.134550        -1.474756         1.577477
 H        -0.206835        -1.808431         0.111266
 H        -0.060222        -0.127412        -1.660618
 H        -1.183118         1.149711        -3.043730
