19
Iteration:   529
 C        -0.195214         2.680891         0.145715
 C        -0.771580         1.203325         0.124886
 C        -1.989874         0.775115         0.896722
 C        -2.000746        -0.422697        -0.048097
 C        -0.768303        -1.184435         0.409519
 C         0.244561         0.034307         0.231616
 O         1.417363        -0.077616         0.009586
 C        -1.452611         0.540690        -1.110895
 O        -2.438150         1.394028        -1.801177
 H        -0.831794         3.341251         0.783955
 H         0.835747         2.669876         0.595219
 H        -0.053118         3.233482        -0.873239
 H        -1.939212         0.596052         1.924362
 H        -2.799548         1.467307         0.697157
 H        -2.892810        -1.086192        -0.218595
 H        -0.854060        -1.452339         1.500154
 H        -0.390168        -2.063845        -0.108582
 H        -0.906656        -0.057363        -1.916821
 H        -3.102192         0.776700        -2.212086
