19
Iteration:  1874
 C        -0.395110         2.689522         0.114053
 C        -0.908648         1.269340         0.125248
 C        -2.324384         0.797317         0.448473
 C        -1.985627        -0.521011        -0.280048
 C        -0.865756        -1.226808         0.468056
 C        -0.014300         0.101713         0.590986
 O         1.145446         0.184325         0.825727
 C        -1.119985         0.455528        -1.186748
 O        -1.677644         1.184141        -2.184328
 H        -1.006394         3.272414         0.927990
 H         0.695150         2.800797         0.311745
 H        -0.575847         3.109737        -0.911644
 H        -2.667560         0.804707         1.525206
 H        -3.064441         1.283372        -0.233141
 H        -2.863160        -1.052157        -0.652837
 H        -1.207446        -1.633902         1.500066
 H        -0.218687        -2.044947        -0.061096
 H        -0.153183         0.062053        -1.670384
 H        -1.524342         0.730559        -3.035019
