19
Iteration:  1092
 C        -0.337621         2.685076         0.060022
 C        -0.787138         1.207823         0.135280
 C        -2.131838         0.795201         0.792359
 C        -1.992779        -0.404450        -0.125980
 C        -0.812852        -1.182940         0.452580
 C         0.132329         0.027206         0.467357
 O         1.332961         0.036746         0.442329
 C        -1.299028         0.478842        -1.217878
 O        -2.080260         1.295218        -2.126252
 H         0.479628         2.831214        -0.572269
 H        -1.108104         3.348050        -0.328710
 H        -0.100914         3.011175         1.085944
 H        -2.179421         0.609752         1.861738
 H        -2.941966         1.418407         0.485064
 H        -3.003698        -0.936566        -0.266905
 H        -1.024040        -1.531852         1.455411
 H        -0.464596        -2.025279        -0.172551
 H        -0.500166        -0.035631        -1.742408
 H        -2.914572         0.732345        -2.321313
