19
Iteration:  1914
 C        -0.414761         2.631233         0.235093
 C        -0.875363         1.219671         0.041381
 C        -2.255746         0.766193         0.435402
 C        -1.956846        -0.522134        -0.358667
 C        -0.871091        -1.050663         0.565564
 C         0.031695         0.088404         0.596219
 O         1.161507         0.151862         0.959063
 C        -1.120257         0.471877        -1.303143
 O        -1.768066         1.188740        -2.346126
 H        -0.165329         2.909390         1.298146
 H         0.470842         2.905902        -0.304201
 H        -1.110516         3.418430        -0.024895
 H        -2.647276         0.637512         1.444396
 H        -2.983909         1.319120        -0.118972
 H        -2.713059        -1.254048        -0.691057
 H        -1.186539        -1.244389         1.576222
 H        -0.430748        -1.985275         0.298652
 H        -0.182470         0.046312        -1.582088
 H        -2.261156         0.557466        -2.931208
