19
Iteration:   294charge 0 multiplicity 1
 C        -0.245384         2.643032        -0.109523
 C        -0.685320         1.194727        -0.091366
 C        -1.709950         0.692111         0.969897
 C        -1.993696        -0.454861        -0.027131
 C        -0.752951        -1.222198         0.088052
 C         0.308693         0.024232         0.129763
 O         1.519239        -0.110687         0.327843
 C        -1.665151         0.563817        -1.157724
 O        -2.722321         1.521360        -1.386205
 H        -0.384430         3.159742        -1.086417
 H        -0.754577         3.267180         0.700334
 H         0.875557         2.628281         0.007332
 H        -1.343298         0.528986         1.989223
 H        -2.496043         1.421125         1.146832
 H        -2.890404        -0.994221        -0.080398
 H        -0.852390        -1.702463         1.123343
 H        -0.534921        -1.918787        -0.757541
 H        -1.260701         0.048690        -2.101944
 H        -2.663148         1.710534        -2.309172
