19
Iteration:  2777
 C        -0.401088         2.563424         0.121464
 C        -0.884453         1.181562         0.044021
 C        -2.415687         0.931349         0.203675
 C        -1.941302        -0.530491        -0.451431
 C        -0.894620        -1.173285         0.532130
 C        -0.091764         0.175865         0.749242
 O         0.995276         0.279348         1.313114
 C        -0.942223         0.454968        -1.329589
 O        -1.509381         1.039036        -2.381841
 H        -0.793409         2.991020         1.078013
 H         0.720303         2.646036         0.092519
 H        -0.978005         3.077631        -0.622561
 H        -2.726393         0.806809         1.294252
 H        -3.023102         1.491071        -0.541528
 H        -2.650442        -1.164822        -0.842916
 H        -1.329225        -1.759022         1.335429
 H        -0.231016        -1.952288         0.168355
 H        -0.028200         0.076046        -1.785752
 H        -2.342136         1.464787        -2.184578
