19
Iteration:  1181
 C         0.007212         2.648525        -0.340584
 C        -0.586943         1.229265        -0.171522
 C        -1.963289         0.687458         0.760745
 C        -1.931833        -0.507935        -0.300796
 C        -0.633485        -1.217009         0.060609
 C         0.143662         0.089082         0.480983
 O         0.992613         0.151640         1.338516
 C        -1.459932         0.461126        -1.290944
 O        -2.517714         1.312865        -1.798018
 H        -0.586990         3.158483        -1.009329
 H        -0.120237         3.124906         0.612379
 H         1.116464         2.622651        -0.518934
 H        -1.737457         0.605639         1.796810
 H        -2.823281         1.287928         0.517112
 H        -2.861899        -1.153161        -0.403625
 H        -0.685093        -1.864037         0.898019
 H        -0.202059        -1.664719        -0.805732
 H        -0.845433         0.038584        -2.079296
 H        -2.249861         1.738249        -2.690684
