19
Iteration:  3821charge 0 multiplicity 1
 C        -0.214025         2.591909         0.081733
 C        -0.865312         1.227719        -0.032753
 C        -2.485805         0.694394         0.101055
 C        -1.928307        -0.573979        -0.513441
 C        -1.023645        -1.068410         0.528920
 C        -0.111039         0.187526         0.897277
 O         0.988308         0.321074         1.494448
 C        -0.933256         0.403271        -1.336956
 O        -1.642965         1.113659        -2.401986
 H         0.413515         2.865247        -0.822002
 H        -0.953716         3.466559         0.321299
 H         0.506738         2.591389         1.008842
 H        -2.690666         0.596897         1.160941
 H        -3.184221         1.254983        -0.448991
 H        -2.694979        -1.250120        -0.951034
 H        -1.499696        -1.538635         1.404071
 H        -0.228053        -1.783035         0.274281
 H         0.066175         0.078537        -1.580086
 H        -1.001851         1.228306        -3.222622
