19
Iteration:   270charge 0 multiplicity 1
 C        -0.292190         2.665586        -0.003859
 C        -0.638815         1.147510         0.028689
 C        -1.830052         0.748186         1.008846
 C        -1.996961        -0.442954         0.054005
 C        -0.672649        -1.235599         0.187650
 C         0.235056        -0.095814         0.094698
 O         1.458083        -0.079106         0.048704
 C        -1.590559         0.589353        -1.089408
 O        -2.561791         1.564071        -1.524695
 H         0.152616         2.935656        -0.979355
 H        -1.319105         3.258908         0.105927
 H         0.455225         3.002686         0.691466
 H        -1.641646         0.489744         2.126096
 H        -2.695531         1.438696         1.127404
 H        -2.948184        -0.966244        -0.018549
 H        -0.695273        -1.689294         1.245957
 H        -0.584531        -1.944680        -0.595017
 H        -1.016804         0.130239        -1.958123
 H        -3.083147         1.083795        -2.188728
