19
Iteration:   828
 C        -0.130877         2.538609         0.120339
 C        -0.716634         1.216623         0.047190
 C        -2.022505         0.897331         0.834282
 C        -2.024200        -0.341092        -0.078239
 C        -0.780795        -1.100730         0.315470
 C         0.182815         0.052371         0.333458
 O         1.399556         0.015930         0.408136
 C        -1.458733         0.488682        -1.212698
 O        -2.461015         1.113313        -1.962088
 H         0.990464         2.515885         0.047090
 H        -0.537418         3.256649        -0.626799
 H        -0.357674         2.911808         1.180007
 H        -1.896330         0.956948         1.854269
 H        -2.861583         1.556399         0.561604
 H        -2.844909        -1.053456        -0.276321
 H        -0.856907        -1.486250         1.426299
 H        -0.500281        -1.949133        -0.393282
 H        -0.701649         0.100711        -1.861059
 H        -2.517440         2.101649        -2.060741
