19
Iteration:  2687
 C        -0.390582         2.747973         0.150637
 C        -0.904143         1.325485         0.082014
 C        -2.406920         0.824535         0.306047
 C        -1.970904        -0.530078        -0.402872
 C        -0.846064        -1.156364         0.452628
 C        -0.103638         0.142883         0.727447
 O         0.971949         0.214329         1.285927
 C        -0.964963         0.378300        -1.311523
 O        -1.500052         0.984426        -2.471041
 H        -1.115591         3.615847         0.212251
 H         0.233314         2.814034         1.061151
 H         0.409324         3.076071        -0.598284
 H        -2.775275         0.641240         1.361071
 H        -3.077169         1.398799        -0.358606
 H        -2.777816        -1.110969        -0.779455
 H        -1.208112        -1.698970         1.322583
 H        -0.270995        -1.941395        -0.070051
 H        -0.055700        -0.239388        -1.623252
 H        -2.329819         1.479680        -2.295789
