19
Iteration:  3187charge 0 multiplicity 1
 C        -0.127565         2.581589        -0.012503
 C        -0.732430         1.231887        -0.106832
 C        -2.255411         0.752668         0.281344
 C        -1.879790        -0.596030        -0.559739
 C        -0.722139        -1.222466         0.341946
 C        -0.062032         0.167570         0.872042
 O         0.631693         0.401639         1.834690
 C        -0.958352         0.388378        -1.401397
 O        -1.916387         1.178439        -2.397880
 H         0.960837         2.532338        -0.273451
 H        -0.690837         3.140344        -0.778410
 H        -0.264809         3.201481         1.000769
 H        -2.615042         0.621131         1.290854
 H        -2.878957         1.166105        -0.562765
 H        -2.734557        -1.151378        -1.028884
 H        -1.106102        -1.693447         1.236005
 H        -0.043401        -1.845840        -0.213966
 H         0.016629         0.056559        -1.994645
 H        -1.724611         1.068415        -3.291185
