19
Iteration:  2249charge 0 multiplicity 1
 C        -0.115079         2.723999         0.098869
 C        -0.742218         1.211689        -0.109319
 C        -2.175076         0.738539         0.479012
 C        -1.927199        -0.553125        -0.512327
 C        -0.804381        -1.095105         0.404187
 C        -0.035969         0.133021         0.677813
 O         0.899486         0.296808         1.445937
 C        -1.178860         0.341359        -1.433722
 O        -1.994305         1.078395        -2.323413
 H        -0.554335         3.434779        -0.616578
 H        -0.436910         3.010541         1.167457
 H         0.978625         2.515970        -0.154379
 H        -1.947264         0.493777         1.436296
 H        -2.943745         1.439661         0.427591
 H        -2.645416        -1.192063        -0.983706
 H        -1.246853        -1.674340         1.286814
 H        -0.094408        -1.903343        -0.071135
 H        -0.487110        -0.177963        -2.150797
 H        -1.844861         2.055892        -2.228354
