19
Iteration:  1835
 C        -0.336209         2.669555         0.005223
 C        -0.773520         1.198817         0.038273
 C        -2.255611         0.687366         0.501248
 C        -2.010323        -0.489837        -0.393824
 C        -0.920509        -1.203215         0.491681
 C         0.093969         0.112380         0.716572
 O         1.235555         0.214868         1.093248
 C        -1.160114         0.390332        -1.380439
 O        -1.929414         1.318283        -2.198189
 H        -1.210558         3.254140         0.026212
 H         0.299021         2.793236         0.918035
 H         0.102145         2.794599        -1.012710
 H        -2.388410         0.526621         1.592565
 H        -3.055559         1.370954         0.206470
 H        -2.877346        -1.054951        -0.817234
 H        -1.434380        -1.564871         1.338450
 H        -0.419131        -1.972747         0.001096
 H        -0.392368        -0.162227        -1.849252
 H        -1.640056         1.119384        -3.139056
