19
Iteration:  4982
 C        -0.440530         2.731527         0.103490
 C        -0.914358         1.218196         0.087022
 C        -2.357032         0.792438         0.176618
 C        -1.904883        -0.511630        -0.437321
 C        -1.050538        -1.155080         0.600169
 C        -0.127912         0.173847         0.752306
 O         1.076026         0.182721         1.134432
 C        -0.918168         0.338626        -1.310481
 O        -1.516763         1.103204        -2.249824
 H        -1.349699         3.383361         0.239519
 H         0.386359         2.983776         0.852603
 H        -0.012875         2.951601        -0.937622
 H        -2.810169         0.681304         1.275799
 H        -3.003415         1.434447        -0.448285
 H        -2.583991        -1.106800        -0.913035
 H        -1.691536        -1.268895         1.531911
 H        -0.675996        -2.176281         0.439624
 H        -0.032107        -0.123246        -1.657661
 H        -1.077314         1.617559        -2.869773
