19
Iteration:  3236
 C        -0.370415         2.683605         0.049264
 C        -0.813683         1.213928        -0.019712
 C        -2.272122         0.685017         0.245743
 C        -1.944201        -0.513574        -0.522910
 C        -0.923563        -1.178362         0.477608
 C        -0.078750         0.121688         0.808288
 O         0.888494         0.332584         1.605816
 C        -0.973563         0.410605        -1.370385
 O        -1.579135         1.170949        -2.436605
 H         0.681470         2.804264         0.291385
 H        -0.568384         3.188552        -0.923134
 H        -0.902886         3.177891         0.774400
 H        -2.523581         0.580719         1.329004
 H        -2.862815         1.392273        -0.309288
 H        -2.715113        -1.206625        -0.909275
 H        -1.368992        -1.699742         1.359638
 H        -0.356690        -1.891494        -0.168801
 H        -0.162650         0.039471        -1.812487
 H        -2.121479         0.503690        -3.014616
