19
Iteration:  2016
 C        -0.253383         2.474838        -0.269858
 C        -0.684189         1.145709        -0.135081
 C        -2.121472         0.709559         0.543939
 C        -1.881172        -0.438364        -0.442227
 C        -0.603333        -1.132755         0.208265
 C         0.096946         0.094332         0.685768
 O         0.770645         0.261559         1.705610
 C        -1.240066         0.421358        -1.440872
 O        -2.079879         1.344463        -2.095751
 H         0.872219         2.486677         0.117809
 H        -0.170079         2.979857        -1.254575
 H        -0.711123         3.220076         0.430964
 H        -2.032214         0.525938         1.561421
 H        -2.885011         1.464297         0.319100
 H        -2.615532        -1.197344        -0.737723
 H        -1.007416        -1.810317         1.031289
 H        -0.005021        -1.642970        -0.637707
 H        -0.451531        -0.010620        -2.076750
 H        -2.293945         1.012902        -2.959481
