19
Iteration:  3791
 C        -0.242985         2.578406         0.049753
 C        -0.795287         1.224592        -0.023794
 C        -2.262211         0.867460         0.174505
 C        -1.844117        -0.525275        -0.469428
 C        -0.867551        -1.164938         0.416134
 C        -0.142116         0.101285         0.810739
 O         0.729776         0.320854         1.607413
 C        -0.967031         0.382378        -1.378463
 O        -1.731405         1.050814        -2.383676
 H         0.287393         2.881575        -0.910803
 H        -1.109347         3.356163         0.185626
 H         0.425226         2.760815         0.823854
 H        -2.526511         0.943171         1.191338
 H        -2.960736         1.453697        -0.432473
 H        -2.625127        -1.091673        -0.829732
 H        -1.393240        -1.494731         1.334460
 H        -0.012624        -1.812667         0.166600
 H         0.051270         0.019472        -1.761293
 H        -1.139605         1.477747        -2.962270
