19
Iteration:  2519charge 0 multiplicity 1
 C        -0.273618         2.630667         0.058703
 C        -0.849710         1.212672         0.016017
 C        -2.305098         0.774620         0.277248
 C        -1.893612        -0.563508        -0.428886
 C        -0.787061        -1.206788         0.477380
 C        -0.071540         0.114664         0.813736
 O         0.961286         0.283022         1.440065
 C        -1.078999         0.461917        -1.429115
 O        -1.753728         1.141513        -2.444878
 H         0.742037         2.720484        -0.382561
 H        -0.965619         3.378365        -0.438031
 H        -0.168890         2.988449         1.103098
 H        -2.564041         0.719475         1.331816
 H        -2.995163         1.369275        -0.267703
 H        -2.788583        -1.188152        -0.763330
 H        -1.139757        -1.668750         1.427843
 H        -0.303124        -1.996094        -0.052309
 H        -0.163901        -0.045761        -1.808270
 H        -2.328286         1.849757        -2.167765
