19
Iteration:  1224charge 0 multiplicity 1
 C        -0.209565         2.576420        -0.281049
 C        -0.715445         1.131753        -0.165216
 C        -1.988686         0.727012         0.717572
 C        -1.946759        -0.508949        -0.292899
 C        -0.623699        -1.171457         0.133621
 C         0.180506         0.116396         0.498879
 O         1.070161         0.125392         1.319310
 C        -1.400007         0.434871        -1.352969
 O        -2.287154         1.444185        -1.885663
 H        -0.933058         3.330471        -0.112295
 H         0.645684         2.733211         0.383885
 H         0.209963         2.702448        -1.342144
 H        -1.841106         0.469612         1.758965
 H        -2.741503         1.488539         0.534460
 H        -2.803182        -1.185454        -0.639001
 H        -0.802988        -1.735472         1.004003
 H        -0.125510        -1.708231        -0.540738
 H        -0.969079        -0.045110        -2.180985
 H        -3.200643         1.183171        -1.561731
