19
Iteration:  4013
 C        -0.208637         2.693165        -0.180411
 C        -0.748693         1.215287        -0.115027
 C        -2.162109         0.812364         0.326716
 C        -1.850886        -0.474379        -0.456205
 C        -0.800223        -1.199904         0.329235
 C        -0.031936         0.098689         0.842075
 O         0.592711         0.229655         1.878949
 C        -1.008131         0.393288        -1.417035
 O        -1.824416         1.092833        -2.409366
 H         0.842082         2.878347         0.241421
 H        -0.306951         3.263430        -1.131053
 H        -0.925769         3.361895         0.485763
 H        -2.220548         0.697221         1.359252
 H        -2.886886         1.357110        -0.196968
 H        -2.647885        -1.148744        -0.960900
 H        -1.124443        -1.873861         1.188199
 H        -0.189973        -1.848928        -0.357732
 H        -0.201650        -0.165542        -1.895195
 H        -1.391324         1.864315        -2.849695
