19
Iteration:  3341charge 0 multiplicity 1
 C        -0.452893         2.781191         0.228820
 C        -0.903341         1.297897         0.047220
 C        -2.388028         0.765987         0.185050
 C        -1.914012        -0.581518        -0.532844
 C        -0.982504        -1.118672         0.592795
 C        -0.087675         0.139160         0.806983
 O         0.959988         0.285847         1.342394
 C        -0.924605         0.298102        -1.390917
 O        -1.429233         1.037111        -2.523868
 H         0.646040         2.672070        -0.028680
 H        -1.032478         3.644593        -0.301203
 H        -0.410646         2.796996         1.380286
 H        -2.681811         0.508939         1.223256
 H        -3.348285         1.167019        -0.147001
 H        -2.605942        -1.173588        -1.100116
 H        -1.345926        -1.426046         1.581872
 H        -0.224847        -1.846394         0.387247
 H         0.092097        -0.186917        -1.740163
 H        -2.205721         1.701142        -2.280039
