19
Iteration:  3989charge 0 multiplicity 1
 C        -0.179964         2.581413        -0.069199
 C        -0.704342         1.157177        -0.069455
 C        -2.212401         0.759483         0.349912
 C        -1.825336        -0.477898        -0.565952
 C        -0.806874        -1.119233         0.336822
 C        -0.177556         0.153696         0.855037
 O         0.628316         0.303732         1.772902
 C        -0.997401         0.453439        -1.440285
 O        -1.811750         1.040976        -2.349656
 H         0.976079         2.685175         0.022933
 H        -0.469436         3.090493        -1.094234
 H        -0.648303         3.356846         0.606085
 H        -2.347019         0.556451         1.372623
 H        -2.751597         1.579694        -0.167845
 H        -2.644848        -1.021486        -1.063871
 H        -1.119985        -1.631503         1.266545
 H        -0.074861        -1.777399        -0.139743
 H        -0.234634        -0.097701        -1.934903
 H        -1.393665         1.654623        -3.053688
