19
Iteration:  4837charge 0 multiplicity 1
 C        -0.221768         2.600128        -0.188906
 C        -0.728457         1.213011        -0.081427
 C        -2.154634         0.751939         0.403372
 C        -1.860974        -0.464790        -0.544985
 C        -0.762716        -1.167193         0.360298
 C        -0.092448         0.044877         0.857526
 O         0.606337         0.315975         1.793311
 C        -1.020931         0.450030        -1.401824
 O        -1.809152         1.104686        -2.393758
 H         0.282006         3.067322         0.715237
 H         0.461576         2.780519        -1.094182
 H        -1.187311         3.301394        -0.363853
 H        -2.289336         0.531348         1.512335
 H        -2.964403         1.434370         0.039131
 H        -2.547496        -1.112465        -0.965817
 H        -1.180075        -1.777819         1.210172
 H        -0.236611        -1.931828        -0.256126
 H        -0.204439        -0.064751        -1.934111
 H        -1.272713         1.915661        -2.758271
