19
Iteration:  2351charge 0 multiplicity 1
 C        -0.280059         2.588900        -0.004311
 C        -0.758768         1.157395        -0.105594
 C        -2.170359         0.761268         0.398650
 C        -1.878760        -0.524089        -0.467181
 C        -0.790915        -1.138209         0.369859
 C        -0.007111         0.057421         0.737261
 O         0.881166         0.328759         1.528525
 C        -1.098830         0.397907        -1.392314
 O        -1.897689         1.269405        -2.269783
 H        -0.820298         3.090869         0.856208
 H         0.797088         2.555315         0.104694
 H        -0.551596         3.084530        -0.962921
 H        -2.248824         0.760300         1.406393
 H        -3.030913         1.287490        -0.014248
 H        -2.789342        -1.173464        -0.653285
 H        -1.179932        -1.690685         1.221500
 H        -0.233087        -1.855322        -0.264194
 H        -0.198956         0.059525        -1.915136
 H        -2.137510         0.725846        -3.016036
