19
Iteration:  4331charge 0 multiplicity 1
 C        -0.167852         2.565054        -0.058620
 C        -0.817803         1.166897        -0.068816
 C        -2.245560         0.690393         0.216025
 C        -1.854996        -0.530237        -0.520920
 C        -0.910301        -1.186346         0.474735
 C        -0.104009         0.114555         0.842968
 O         0.725272         0.402945         1.699023
 C        -0.971277         0.410316        -1.446478
 O        -1.782598         1.203723        -2.360141
 H         0.872844         2.501809        -0.369540
 H        -0.646936         3.266818        -0.713965
 H        -0.145303         3.021558         0.886662
 H        -2.384562         0.711503         1.433626
 H        -3.014195         1.286236        -0.196115
 H        -2.640780        -1.237053        -0.780696
 H        -1.386458        -1.683851         1.338351
 H        -0.223340        -1.930390        -0.010836
 H        -0.031689         0.125467        -1.951992
 H        -1.108627         1.480966        -2.983094
