19
Iteration:  1912charge 0 multiplicity 1
 C        -0.416036         2.615773         0.235651
 C        -0.865887         1.237774         0.058980
 C        -2.248807         0.761785         0.435223
 C        -1.964456        -0.508666        -0.383400
 C        -0.884130        -1.058301         0.561157
 C         0.024180         0.115907         0.617270
 O         1.181659         0.153531         0.940998
 C        -1.130889         0.469910        -1.301677
 O        -1.761411         1.173413        -2.337172
 H        -0.240245         2.861715         1.257361
 H         0.551884         2.832963        -0.302107
 H        -1.203070         3.373107        -0.072565
 H        -2.694909         0.601294         1.534031
 H        -3.018924         1.322174        -0.122311
 H        -2.757631        -1.218343        -0.694715
 H        -1.246637        -1.259146         1.532737
 H        -0.396564        -1.943425         0.303608
 H        -0.150314         0.008650        -1.554898
 H        -2.197375         0.595517        -2.906831
