19
Iteration:   998charge 0 multiplicity 1
 C        -0.070958         2.532639         0.041499
 C        -0.837032         1.218882         0.059696
 C        -2.052514         0.895621         0.743240
 C        -2.033887        -0.452200        -0.178854
 C        -0.750469        -1.123232         0.360465
 C         0.143463         0.085424         0.376273
 O         1.340477         0.096588         0.618669
 C        -1.398122         0.493893        -1.265515
 O        -2.396638         1.146808        -1.997229
 H         0.052895         3.033597         1.047457
 H         1.005161         2.324942        -0.175791
 H        -0.582125         3.251503        -0.724115
 H        -2.013679         0.629394         1.821649
 H        -2.959474         1.481472         0.486912
 H        -2.850963        -1.093867        -0.425013
 H        -0.911125        -1.505258         1.359214
 H        -0.311727        -1.939118        -0.254091
 H        -0.549489         0.188269        -1.937068
 H        -2.468293         1.929025        -1.474874
