19
Iteration:  2229
 C        -0.246883         2.569382         0.136273
 C        -0.829238         1.204318        -0.087971
 C        -2.198998         0.781832         0.450343
 C        -1.954921        -0.452567        -0.348100
 C        -0.826799        -1.130685         0.421870
 C        -0.000096         0.149825         0.646380
 O         1.014800         0.259163         1.304474
 C        -1.079055         0.408587        -1.380905
 O        -1.960188         1.086385        -2.376575
 H        -0.378752         3.232557        -0.723629
 H        -0.939800         2.984314         0.905338
 H         0.835676         2.449892         0.466710
 H        -2.450814         0.645433         1.459032
 H        -2.973894         1.331922        -0.106684
 H        -2.769521        -1.090370        -0.733160
 H        -1.098384        -1.529379         1.422752
 H        -0.184139        -1.880582        -0.061454
 H        -0.193201         0.038954        -1.831837
 H        -1.568111         1.929642        -2.375470
