19
Iteration:  2901charge 0 multiplicity 1
 C        -0.140906         2.639223        -0.041714
 C        -0.723668         1.238029        -0.097657
 C        -2.300678         0.634929         0.371807
 C        -1.862141        -0.537288        -0.537997
 C        -0.784562        -1.257227         0.467633
 C        -0.062245         0.073291         0.807930
 O         0.675646         0.409460         1.711217
 C        -1.045994         0.518571        -1.441953
 O        -1.727761         1.130954        -2.516378
 H         0.592423         2.470968         0.719098
 H         0.188449         3.051661        -0.970382
 H        -0.863566         3.388437         0.301632
 H        -2.686581         0.638174         1.429013
 H        -3.069507         1.346997        -0.112474
 H        -2.752427        -1.165747        -0.883254
 H        -1.210688        -1.741996         1.353430
 H        -0.073917        -2.006798         0.109351
 H        -0.161719         0.154468        -1.876449
 H        -2.560752         1.518465        -2.193500
