19
Iteration:  1020
 C        -0.196220         2.636197         0.046896
 C        -0.762633         1.163721         0.026638
 C        -2.158840         0.774402         0.736497
 C        -2.037549        -0.408793        -0.115468
 C        -0.848448        -1.222034         0.535235
 C         0.170954         0.038307         0.501352
 O         1.394175         0.102577         0.360116
 C        -1.368495         0.516684        -1.196349
 O        -2.266406         1.243424        -2.060616
 H         0.303458         2.785569         1.056774
 H         0.678888         2.891043        -0.591160
 H        -1.083278         3.375392        -0.084780
 H        -2.239805         0.702634         1.844351
 H        -3.024594         1.295078         0.262769
 H        -2.780854        -1.103645        -0.409708
 H        -1.033871        -1.381420         1.593209
 H        -0.359623        -2.089850         0.023006
 H        -0.676727        -0.148225        -1.759284
 H        -1.888393         2.162420        -1.843207
