19
Iteration:  4503
 C        -0.300733         2.653309        -0.036527
 C        -0.738039         1.176375        -0.052415
 C        -2.250582         0.768704         0.235074
 C        -1.881257        -0.539343        -0.585446
 C        -0.955980        -1.220744         0.514590
 C        -0.151974         0.149007         0.895850
 O         0.855541         0.327019         1.594612
 C        -1.009691         0.372346        -1.394030
 O        -1.713229         1.155295        -2.335471
 H         0.801306         2.679728         0.396507
 H        -0.092373         3.048330        -1.101797
 H        -0.977985         3.409475         0.413332
 H        -2.316625         0.677325         1.246301
 H        -2.970950         1.421115        -0.078576
 H        -2.588648        -1.222473        -1.055192
 H        -1.614420        -1.480036         1.327584
 H        -0.358515        -1.997853         0.083362
 H        -0.041602        -0.006523        -1.869336
 H        -1.138823         1.450454        -3.090870
