19
Iteration:  1931
 C        -0.345036         2.732697         0.221893
 C        -0.815666         1.279691        -0.043604
 C        -2.385533         0.792814         0.396946
 C        -1.941053        -0.536728        -0.297679
 C        -0.831758        -1.268363         0.564372
 C         0.068418         0.123268         0.587526
 O         1.152392         0.168786         1.121666
 C        -1.083004         0.416006        -1.423073
 O        -1.852366         1.243964        -2.323148
 H         0.090284         2.625383         1.169041
 H         0.444421         2.916452        -0.590282
 H        -1.340706         3.264449         0.235651
 H        -2.422024         0.872751         1.559627
 H        -3.189722         1.427380        -0.082770
 H        -2.746006        -1.147667        -0.727374
 H        -1.204112        -1.404535         1.631802
 H        -0.271929        -2.144741         0.159000
 H        -0.231099        -0.111019        -2.028690
 H        -2.390489         0.643632        -2.858446
