19
Iteration:  4936charge 0 multiplicity 1
 C        -0.455487         2.751836         0.089947
 C        -0.892005         1.273880         0.036571
 C        -2.305382         0.822420         0.334147
 C        -1.942310        -0.448734        -0.403583
 C        -0.945867        -1.130203         0.463146
 C        -0.018428         0.084575         0.759865
 O         0.956246         0.152985         1.376575
 C        -0.977391         0.387829        -1.324905
 O        -1.611634         0.988455        -2.488087
 H        -1.176867         3.471617         0.534376
 H         0.443687         2.778365         0.738394
 H        -0.004627         3.237113        -0.840987
 H        -2.517668         0.854330         1.558996
 H        -3.064183         1.369368        -0.202274
 H        -2.698186        -0.973712        -0.837957
 H        -1.206905        -1.700262         1.363280
 H        -0.346837        -1.893532        -0.035479
 H        -0.039183         0.108726        -1.717620
 H        -0.936549         1.587024        -2.911261
