19
Iteration:  3886
 C        -0.528569         2.724270         0.079989
 C        -0.858507         1.238466         0.058033
 C        -2.421113         0.897026         0.215639
 C        -2.015017        -0.492198        -0.507079
 C        -0.931265        -1.066798         0.602793
 C        -0.115451         0.148664         0.888847
 O         1.011250         0.106147         1.335233
 C        -0.865251         0.303054        -1.267938
 O        -1.471656         1.026553        -2.544916
 H         0.074745         3.093765        -0.739155
 H        -1.408672         3.378036         0.199771
 H         0.115200         2.864373         0.969836
 H        -2.753402         0.877675         1.364580
 H        -3.152177         1.529093        -0.287861
 H        -2.817356        -1.116666        -0.975371
 H        -1.431471        -1.529629         1.419875
 H        -0.158520        -1.716681         0.173457
 H         0.040679        -0.156886        -1.608767
 H        -0.788370         1.625031        -2.680089
