19
Iteration:   949charge 0 multiplicity 1
 C        -0.082412         2.504612        -0.235893
 C        -0.679736         1.170768        -0.127119
 C        -1.808913         0.817026         0.832723
 C        -1.927889        -0.406661        -0.164601
 C        -0.627558        -1.223426         0.076553
 C         0.209004         0.059624         0.410056
 O         1.188299         0.116824         1.121147
 C        -1.567709         0.523709        -1.302217
 O        -2.558023         1.351325        -1.914709
 H        -0.701170         3.343845         0.049908
 H         0.727008         2.535765         0.468651
 H         0.183912         2.635355        -1.212800
 H        -1.539727         0.644232         1.842808
 H        -2.669766         1.443159         0.700866
 H        -2.916465        -0.943483        -0.349521
 H        -0.911692        -1.777753         1.043608
 H        -0.300901        -1.980567        -0.722433
 H        -1.141263         0.062054        -2.172179
 H        -3.469967         1.217029        -1.497198
