19
Iteration:  1059charge 0 multiplicity 1
 C        -0.429310         2.680186         0.055627
 C        -0.777932         1.233204         0.156249
 C        -2.181989         0.830175         0.768958
 C        -2.031366        -0.423364        -0.098732
 C        -0.807294        -1.096355         0.485135
 C         0.134319         0.050560         0.434642
 O         1.353951        -0.048857         0.229762
 C        -1.292685         0.421554        -1.109893
 O        -2.004763         1.277555        -1.974666
 H         0.537039         2.889081         0.418127
 H        -0.649001         3.133769        -0.902849
 H        -1.123527         3.115495         0.760684
 H        -2.400099         0.684083         1.817913
 H        -2.950731         1.424753         0.329100
 H        -3.010497        -0.918895        -0.393056
 H        -1.078289        -1.332998         1.529040
 H        -0.485583        -2.034930        -0.071497
 H        -0.482644        -0.078121        -1.651920
 H        -1.771311         1.115591        -2.911787
