19
Iteration:  3582charge 0 multiplicity 1
 C        -0.452598         2.624598         0.100680
 C        -0.884449         1.230044         0.145190
 C        -2.380619         0.746783         0.200071
 C        -1.904578        -0.557471        -0.517039
 C        -0.985133        -1.070023         0.615406
 C        -0.164841         0.173779         0.801169
 O         0.967200         0.265896         1.240119
 C        -0.919023         0.425006        -1.298587
 O        -1.369590         1.085432        -2.440143
 H         0.580137         2.534763        -0.244564
 H        -1.041907         3.156706        -0.655311
 H        -0.441083         3.147823         0.967486
 H        -2.820434         0.405537         1.198104
 H        -3.060148         1.351571        -0.377289
 H        -2.571261        -1.273820        -0.968211
 H        -1.649870        -1.249327         1.475793
 H        -0.349270        -1.989876         0.526202
 H        -0.080100        -0.122272        -1.665296
 H        -2.289795         1.558782        -2.295182
