19
Iteration:  4224charge 0 multiplicity 1
 C        -0.190104         2.560648         0.038265
 C        -0.791982         1.178291        -0.048824
 C        -2.328819         0.791348         0.175647
 C        -1.911593        -0.543508        -0.556041
 C        -0.935570        -1.136563         0.528497
 C        -0.138637         0.165447         0.845401
 O         0.834698         0.351810         1.553055
 C        -0.986829         0.375647        -1.375586
 O        -1.702630         1.153901        -2.340452
 H         0.840345         2.541134        -0.382840
 H        -0.845559         3.259538        -0.597155
 H        -0.300531         3.148839         1.133523
 H        -2.592200         0.704841         1.152594
 H        -3.019474         1.150466        -0.468418
 H        -2.450981        -1.401955        -0.839107
 H        -1.460871        -1.685197         1.328038
 H        -0.176543        -1.788325        -0.007819
 H        -0.138971        -0.228384        -1.785194
 H        -1.047526         1.529986        -2.884213
