19
Iteration:  3702charge 0 multiplicity 1
 C        -0.184390         2.527482        -0.070231
 C        -0.787859         1.199849        -0.054454
 C        -2.256522         0.737639         0.198099
 C        -1.902454        -0.575783        -0.559522
 C        -0.887421        -1.153211         0.352550
 C        -0.072966         0.254322         0.862792
 O         0.746829         0.381795         1.706626
 C        -0.999590         0.373679        -1.375627
 O        -1.803872         1.123793        -2.273005
 H         0.875839         2.252314        -0.233279
 H        -0.588969         3.229360        -0.871545
 H        -0.245051         3.039272         0.866431
 H        -2.697798         0.494715         1.158638
 H        -2.757975         1.427830        -0.446913
 H        -2.663688        -1.185898        -1.081441
 H        -1.208586        -1.697186         1.244329
 H         0.048883        -1.679354         0.067351
 H        -0.070670        -0.041096        -1.922649
 H        -1.174303         1.718661        -2.616074
