19
Iteration:  3835
 C        -0.298376         2.603569         0.089642
 C        -0.845263         1.232369        -0.011926
 C        -2.430890         0.747099         0.201619
 C        -1.870138        -0.500800        -0.523718
 C        -0.955777        -1.118902         0.650026
 C        -0.189009         0.189905         0.847857
 O         0.904464         0.278971         1.337821
 C        -0.940456         0.403894        -1.330052
 O        -1.537879         1.099195        -2.375318
 H         0.310284         2.962837        -0.823791
 H        -1.191516         3.361236         0.222888
 H         0.358604         2.636380         0.940884
 H        -2.838018         0.673744         1.130212
 H        -3.184491         1.292736        -0.383749
 H        -2.419793        -1.251922        -1.005588
 H        -1.714406        -1.484918         1.373983
 H        -0.360733        -1.934241         0.234368
 H        -0.050476        -0.107944        -1.789191
 H        -0.888495         1.131659        -3.047199
