19
Iteration:   645
 C         0.115834         2.546039        -0.370835
 C        -0.638292         1.197623        -0.152843
 C        -1.790719         0.719019         0.810759
 C        -1.986335        -0.532692        -0.170976
 C        -0.675142        -1.233061        -0.027173
 C         0.293256        -0.047905         0.276434
 O         1.242513         0.133927         1.030357
 C        -1.661217         0.611860        -1.257429
 O        -2.769195         1.473602        -1.459374
 H         0.586518         2.531447        -1.325838
 H        -0.626104         3.280626        -0.395434
 H         0.850836         2.874649         0.423900
 H        -1.522743         0.632821         1.993561
 H        -2.630859         1.487223         0.729877
 H        -2.913076        -1.125404        -0.267221
 H        -0.647332        -1.984750         0.707888
 H        -0.255257        -1.699378        -0.987297
 H        -1.280641         0.241073        -2.257392
 H        -3.509114         0.930651        -1.710163
