19
Iteration:  2424charge 0 multiplicity 1
 C        -0.384653         2.768409         0.185187
 C        -0.855997         1.341971         0.093107
 C        -2.349937         0.678614         0.356571
 C        -1.943708        -0.538500        -0.449955
 C        -1.014811        -1.121929         0.551540
 C        -0.053237         0.139975         0.721078
 O         1.095210         0.214063         1.101474
 C        -0.996401         0.382495        -1.343941
 O        -1.566049         1.108759        -2.409545
 H         0.222805         2.781883         1.076326
 H         0.160303         2.991348        -0.722766
 H        -1.243512         3.469903         0.306370
 H        -2.583503         0.457719         1.504167
 H        -3.160252         1.447621         0.075333
 H        -2.581535        -1.303906        -0.778077
 H        -1.534368        -1.364332         1.513109
 H        -0.460840        -2.080267         0.266469
 H        -0.153220        -0.248149        -1.610536
 H        -2.405325         0.887285        -2.748396
