19
Iteration:  2189
 C        -0.396570         2.693853         0.089606
 C        -0.866880         1.271293         0.170385
 C        -2.327253         0.728470         0.327399
 C        -1.967233        -0.499664        -0.420788
 C        -0.886511        -1.045514         0.494783
 C        -0.038748         0.161834         0.743155
 O         1.151383         0.126988         0.991242
 C        -1.036401         0.344930        -1.266703
 O        -1.774221         1.116442        -2.199872
 H        -0.080776         3.031300        -0.914794
 H        -1.034288         3.414313         0.487138
 H         0.423639         2.816604         0.742783
 H        -2.675298         0.663480         1.459237
 H        -3.129447         1.383856        -0.155002
 H        -2.837355        -0.919844        -0.990554
 H        -1.256073        -1.609692         1.323001
 H        -0.301339        -1.673103        -0.135571
 H        -0.104126        -0.184221        -1.733581
 H        -1.274770         1.326979        -3.068065
