19
Iteration:   719charge 0 multiplicity 1
 C        -0.213196         2.524813        -0.077354
 C        -0.778546         1.174742        -0.020439
 C        -1.954701         0.795982         0.934724
 C        -2.075094        -0.440539        -0.028070
 C        -0.792899        -1.129717         0.309935
 C         0.223863         0.049708         0.322095
 O         1.427074         0.023869         0.420908
 C        -1.487725         0.493666        -1.200765
 O        -2.381624         1.438456        -1.812484
 H        -0.895975         3.398707         0.190452
 H         0.725888         2.458151         0.546734
 H         0.181050         2.834790        -1.091486
 H        -1.600407         0.548294         1.892913
 H        -2.845336         1.436564         0.856636
 H        -2.965461        -1.071979        -0.120686
 H        -0.836151        -1.744832         1.207732
 H        -0.452049        -1.785210        -0.482101
 H        -0.701899         0.022738        -1.826425
 H        -2.872647         0.900747        -2.474081
