19
Iteration:  3441charge 0 multiplicity 1
 C        -0.225732         2.562005        -0.116404
 C        -0.770607         1.167452        -0.005322
 C        -2.224119         0.696093         0.211807
 C        -1.809510        -0.538912        -0.597670
 C        -0.716592        -1.205690         0.380785
 C        -0.136044         0.112990         0.896493
 O         0.649781         0.424850         1.797125
 C        -0.987678         0.426263        -1.476167
 O        -1.742169         1.219555        -2.333158
 H         0.919174         2.496532        -0.248700
 H        -0.813049         3.047634        -1.046097
 H        -0.574059         3.125793         0.758852
 H        -2.318319         0.635714         1.306979
 H        -3.033403         1.273485        -0.275933
 H        -2.504432        -1.125306        -1.000044
 H        -1.323688        -1.725356         1.094836
 H         0.005760        -1.835518        -0.073639
 H        -0.207159        -0.182849        -2.027986
 H        -2.704594         1.358251        -2.089122
