19
Iteration:  1159charge 0 multiplicity 1
 C        -0.040315         2.510658        -0.177222
 C        -0.724318         1.238971        -0.128902
 C        -1.984349         0.779272         0.683446
 C        -1.962339        -0.426538        -0.294026
 C        -0.622725        -1.176500         0.205825
 C         0.176503         0.063950         0.442521
 O         1.113269         0.164954         1.220438
 C        -1.383302         0.506176        -1.372190
 O        -2.559393         1.215427        -1.901282
 H        -0.145893         2.949299        -1.092864
 H        -0.284889         3.206998         0.591579
 H         0.995145         2.156743         0.067804
 H        -1.756035         0.569488         1.702219
 H        -2.752281         1.523027         0.630005
 H        -2.851253        -1.108113        -0.514576
 H        -0.676709        -1.820097         1.052339
 H        -0.184656        -1.695178        -0.639906
 H        -0.726283         0.050599        -2.116006
 H        -2.481522         2.140232        -1.768434
