19
Iteration:  2307charge 0 multiplicity 1
 C        -0.116600         2.708328        -0.229495
 C        -0.727615         1.219276        -0.101434
 C        -2.185203         0.650654         0.395189
 C        -1.934939        -0.561252        -0.384049
 C        -0.708773        -1.166247         0.216873
 C        -0.043852         0.183227         0.811246
 O         0.804933         0.231203         1.681942
 C        -1.153188         0.415168        -1.439693
 O        -1.994420         1.209566        -2.128305
 H        -0.952897         3.431896        -0.021477
 H         0.767490         2.784080         0.392027
 H         0.223397         2.819288        -1.301943
 H        -2.318471         0.531238         1.434742
 H        -3.031288         1.275353         0.019431
 H        -2.695846        -1.309656        -0.824901
 H        -1.001181        -1.843978         1.004699
 H         0.041202        -1.573711        -0.465240
 H        -0.507651        -0.133291        -2.088010
 H        -1.538567         1.591299        -2.877022
