19
Iteration:   544charge 0 multiplicity 1
 C        -0.186213         2.768086         0.060757
 C        -0.647091         1.264627         0.004598
 C        -2.012699         0.731448         0.939716
 C        -2.059148        -0.448229        -0.094074
 C        -0.748325        -1.145642         0.381408
 C         0.227308        -0.018997         0.256619
 O         1.434986        -0.112382         0.174300
 C        -1.503279         0.505804        -1.236349
 O        -2.453754         1.386726        -1.697950
 H        -0.610377         3.182649         0.985270
 H         0.924629         2.902105         0.087967
 H        -0.587183         3.232696        -0.742513
 H        -1.746678         0.439312         2.054198
 H        -2.832870         1.470357         1.076124
 H        -2.936830        -1.031167        -0.302511
 H        -0.790242        -1.691452         1.339885
 H        -0.501674        -1.936885        -0.315186
 H        -0.782004         0.259953        -2.024158
 H        -3.154142         0.908807        -2.227412
