19
Iteration:  4351charge 0 multiplicity 1
 C        -0.208841         2.571630        -0.020844
 C        -0.770944         1.200233        -0.015852
 C        -2.361057         0.750384         0.235687
 C        -1.867486        -0.579653        -0.600500
 C        -0.914790        -1.138152         0.473543
 C        -0.193752         0.203938         0.835069
 O         0.806443         0.357194         1.546905
 C        -0.941326         0.368415        -1.365485
 O        -1.697426         1.110963        -2.271250
 H         0.777626         2.719951        -0.497108
 H        -0.856302         3.293198        -0.500051
 H         0.009011         2.899689         0.905928
 H        -2.738364         0.618104         1.324723
 H        -3.003739         1.417014        -0.322747
 H        -2.540669        -1.033804        -1.348820
 H        -1.379918        -1.477404         1.392215
 H        -0.213296        -1.919622         0.266234
 H        -0.186364        -0.104943        -1.910352
 H        -0.996316         1.587848        -2.878053
