19
Iteration:   860charge 0 multiplicity 1
 C        -0.009512         2.631577        -0.144024
 C        -0.700283         1.183123        -0.077006
 C        -1.984498         0.798404         0.861770
 C        -1.994477        -0.430174        -0.134646
 C        -0.744841        -1.233252         0.205719
 C         0.190266         0.025400         0.384621
 O         1.338621         0.131831         0.774919
 C        -1.560799         0.460518        -1.289853
 O        -2.558044         1.301032        -1.803997
 H         0.756085         2.785943        -0.948872
 H        -0.801204         3.377492        -0.111780
 H         0.608630         2.644123         0.705056
 H        -1.648038         0.658243         1.861373
 H        -2.938040         1.354535         0.700906
 H        -2.821278        -1.142111        -0.355379
 H        -0.991539        -1.783345         1.237629
 H        -0.400205        -2.023051        -0.532408
 H        -0.947603         0.011691        -2.038575
 H        -2.142204         1.976042        -2.406162
