19
Iteration:   117charge 0 multiplicity 1
 C        -0.115818         2.576050        -0.219197
 C        -0.652976         1.166328         0.000876
 C        -1.745647         0.535046         1.086048
 C        -2.001012        -0.491253        -0.066375
 C        -0.653200        -1.209036        -0.087303
 C         0.287596        -0.002506         0.024181
 O         1.477086         0.030647         0.345864
 C        -1.749175         0.604171        -1.124996
 O        -2.725771         1.661642        -1.323678
 H        -1.051809         2.994580        -0.617351
 H         0.074962         3.069809         0.856813
 H         0.791311         2.617877        -0.849167
 H        -1.260171         0.061144         1.963035
 H        -2.591658         1.160659         1.391334
 H        -2.905901        -1.090036         0.007538
 H        -0.645960        -2.021338         0.789818
 H        -0.487429        -1.771488        -1.014942
 H        -1.331529         0.178637        -2.104852
 H        -3.525092         1.601768        -0.820249
