19
Iteration:   956
 C        -0.044175         2.559610        -0.181306
 C        -0.678483         1.211406        -0.065980
 C        -1.833890         0.800424         0.804011
 C        -1.996049        -0.467129        -0.178367
 C        -0.679279        -1.226081         0.114701
 C         0.220081         0.000006         0.412695
 O         1.232007         0.146106         1.083032
 C        -1.546329         0.509168        -1.324953
 O        -2.584981         1.332483        -1.966322
 H        -0.620488         3.458093         0.267263
 H         0.916980         2.497771         0.413737
 H         0.143675         2.736504        -1.269630
 H        -1.508542         0.707299         1.901809
 H        -2.664975         1.580884         0.675808
 H        -2.946597        -0.982950        -0.150441
 H        -0.686449        -1.828701         1.022981
 H        -0.331083        -1.835999        -0.648159
 H        -1.017737         0.065803        -2.224656
 H        -3.421874         1.309313        -1.500679
