19
Iteration:  2193
 C        -0.367094         2.693529         0.088855
 C        -0.884381         1.271215         0.171349
 C        -2.355657         0.770775         0.339049
 C        -1.966308        -0.508662        -0.425712
 C        -0.879979        -1.069036         0.446368
 C        -0.013423         0.167745         0.774466
 O         1.178223         0.143198         1.020393
 C        -1.057408         0.309961        -1.262205
 O        -1.797033         1.111040        -2.218278
 H        -0.092395         3.015195        -0.936628
 H        -1.126007         3.432344         0.569346
 H         0.532549         2.865127         0.757892
 H        -2.734958         0.707650         1.313176
 H        -3.016998         1.364943        -0.219621
 H        -2.804428        -0.861391        -0.969155
 H        -1.340404        -1.663611         1.295928
 H        -0.232148        -1.827012        -0.166878
 H        -0.168643        -0.077172        -1.775578
 H        -1.294885         1.356494        -2.956916
