19
Iteration:  4991charge 0 multiplicity 1
 C        -0.398808         2.671276         0.091591
 C        -0.824495         1.233558         0.038846
 C        -2.428918         0.773862         0.196733
 C        -1.940138        -0.542284        -0.518714
 C        -1.022340        -1.156117         0.667429
 C        -0.114276         0.108520         0.805553
 O         1.011373         0.238834         1.088698
 C        -0.905506         0.374066        -1.264652
 O        -1.559170         1.123782        -2.261009
 H        -1.217275         3.357669         0.329659
 H         0.301253         2.894264         0.888763
 H         0.049142         3.101832        -0.833778
 H        -2.775094         0.904029         1.402779
 H        -3.031383         1.370613        -0.468175
 H        -2.560576        -1.129830        -1.102059
 H        -1.635927        -1.192069         1.562773
 H        -0.461135        -2.064674         0.463559
 H         0.051167        -0.036231        -1.647805
 H        -0.812153         1.443893        -2.715175
