19
Iteration:   906charge 0 multiplicity 1
 C        -0.103219         2.595930        -0.468567
 C        -0.678735         1.236783        -0.208548
 C        -1.901250         0.754250         0.793806
 C        -1.899971        -0.492061        -0.251131
 C        -0.696325        -1.310506         0.058640
 C         0.209129        -0.005523         0.452549
 O         1.196716         0.119866         1.161501
 C        -1.546011         0.487729        -1.245677
 O        -2.487306         1.485926        -1.555745
 H        -0.626058         2.933333        -1.331904
 H        -0.355402         3.286779         0.317509
 H         0.956556         2.498696        -0.810049
 H        -1.736383         0.633094         1.803267
 H        -2.722912         1.350078         0.529800
 H        -2.852141        -1.074969        -0.184405
 H        -0.784889        -1.962429         1.003047
 H        -0.162728        -1.909652        -0.803386
 H        -1.029266         0.087704        -2.098456
 H        -3.119930         1.285735        -2.341169
