19
Iteration:   815
 C        -0.119504         2.705552         0.189461
 C        -0.759133         1.262843         0.068062
 C        -2.120326         0.916250         0.854166
 C        -2.031126        -0.407129        -0.080067
 C        -0.771709        -1.156709         0.427457
 C         0.236400        -0.004389         0.371954
 O         1.445134        -0.023217         0.261826
 C        -1.433072         0.473745        -1.223856
 O        -2.464659         1.136525        -2.039259
 H         0.994349         2.619035         0.409429
 H        -0.274683         3.318678        -0.732966
 H        -0.524681         3.199450         0.974185
 H        -2.088339         0.561759         1.892498
 H        -2.905693         1.667186         0.610367
 H        -2.946683        -0.949762        -0.291942
 H        -0.949720        -1.538130         1.533346
 H        -0.498471        -2.062703        -0.149304
 H        -0.852767        -0.142518        -1.874751
 H        -2.136156         2.033942        -1.920151
