19
Iteration:   635charge 0 multiplicity 1
 C         0.049973         2.510668        -0.406739
 C        -0.645233         1.148854        -0.196640
 C        -1.798722         0.679641         0.861154
 C        -1.895892        -0.406483        -0.156164
 C        -0.630486        -1.299897        -0.027640
 C         0.244810         0.002920         0.264510
 O         1.206474         0.149979         0.998683
 C        -1.658907         0.630759        -1.202325
 O        -2.743640         1.506750        -1.450825
 H         0.830472         2.241901        -1.070804
 H        -0.502537         3.284207        -0.830091
 H         0.619292         2.770804         0.557481
 H        -1.611352         0.352723         2.012539
 H        -2.743340         1.305937         0.757211
 H        -2.777768        -1.077200        -0.234799
 H        -0.693488        -2.028036         0.761006
 H        -0.422459        -1.854062        -1.040378
 H        -1.101507         0.304887        -2.082668
 H        -3.475894         1.020317        -1.886795
