19
Iteration:  1843
 C        -0.365141         2.611609         0.034430
 C        -0.858422         1.162924         0.065540
 C        -2.344239         0.723566         0.482291
 C        -2.002053        -0.469136        -0.355082
 C        -0.900655        -1.139251         0.532406
 C         0.098694         0.122593         0.685052
 O         1.276868         0.177084         1.047130
 C        -1.209393         0.403349        -1.421925
 O        -1.826354         1.297143        -2.198441
 H        -1.127235         3.351376         0.164649
 H         0.445652         2.990620         0.692892
 H         0.040657         2.997115        -0.936153
 H        -2.424771         0.346927         1.609266
 H        -3.245930         1.363705         0.193439
 H        -2.854792        -1.141806        -0.529924
 H        -1.362658        -1.683969         1.362197
 H        -0.296792        -1.901691        -0.004569
 H        -0.294637        -0.032691        -1.950070
 H        -1.579480         1.151043        -3.125140
