19
Iteration:  4343charge 0 multiplicity 1
 C        -0.191078         2.608495        -0.038605
 C        -0.776260         1.198657        -0.039723
 C        -2.264914         0.752513         0.246620
 C        -1.875742        -0.591276        -0.601141
 C        -0.904084        -1.161849         0.477643
 C        -0.160376         0.177865         0.863946
 O         0.757201         0.390071         1.581438
 C        -0.982640         0.363152        -1.378463
 O        -1.720510         1.158046        -2.294191
 H         0.767387         2.453398        -0.478559
 H        -0.762655         3.294119        -0.635675
 H         0.007139         2.917619         1.018580
 H        -2.701237         0.360407         1.315299
 H        -2.909927         1.385181        -0.285447
 H        -2.549679        -1.267288        -1.126211
 H        -1.629801        -1.558619         1.213568
 H        -0.183113        -2.002299         0.185025
 H        -0.049823        -0.150273        -1.777201
 H        -1.197139         1.646950        -3.046292
