19
Iteration:  4546
 C        -0.191528         2.697584        -0.083566
 C        -0.789231         1.270634        -0.069918
 C        -2.210584         0.909756         0.325259
 C        -1.898206        -0.520218        -0.432154
 C        -0.755120        -1.202519         0.297049
 C        -0.103644         0.106391         0.766763
 O         0.640420         0.239429         1.768715
 C        -0.985269         0.329686        -1.350516
 O        -1.799254         1.019984        -2.418040
 H         0.794504         2.715496         0.428633
 H        -0.092677         3.240126        -1.033445
 H        -0.891539         3.370901         0.387429
 H        -2.603313         0.948380         1.279474
 H        -2.837262         1.505172        -0.265632
 H        -2.621463        -1.159232        -0.902286
 H        -0.922497        -1.804376         1.173097
 H        -0.068201        -1.731122        -0.335720
 H        -0.212831        -0.238339        -1.862398
 H        -1.289470         1.910256        -2.571039
