19
Iteration:   481
 C        -0.028870         2.650748         0.207489
 C        -0.822105         1.167536         0.086433
 C        -1.998691         0.763924         0.956777
 C        -2.072791        -0.486552        -0.002122
 C        -0.781438        -1.177140         0.386391
 C         0.176633         0.067775         0.233730
 O         1.370800         0.115490        -0.115029
 C        -1.578676         0.456349        -1.144094
 O        -2.328129         1.332401        -1.730526
 H        -0.268821         3.282019        -0.675155
 H        -0.236757         3.224549         1.100475
 H         1.109767         2.392043         0.092892
 H        -1.926765         0.568318         2.065788
 H        -2.876387         1.404486         0.801291
 H        -3.020833        -1.006109         0.003623
 H        -0.816628        -1.464777         1.421716
 H        -0.367064        -2.042722        -0.258425
 H        -0.803849         0.120549        -1.838025
 H        -2.682201         1.058739        -2.581396
