19
Iteration:  4016
 C        -0.221494         2.707167        -0.171870
 C        -0.752837         1.207769        -0.145445
 C        -2.177231         0.802697         0.320928
 C        -1.837333        -0.482840        -0.447896
 C        -0.795598        -1.195858         0.316998
 C        -0.025595         0.094055         0.857350
 O         0.596134         0.224634         1.880664
 C        -1.023309         0.423258        -1.431878
 O        -1.810934         1.083035        -2.394256
 H         0.750114         2.831912         0.209932
 H        -0.249210         3.175258        -1.117507
 H        -0.859387         3.331640         0.475440
 H        -2.285118         0.767547         1.444261
 H        -2.849525         1.427592        -0.237425
 H        -2.667399        -1.063307        -0.898908
 H        -1.051994        -1.785853         1.207254
 H        -0.237102        -1.915400        -0.341559
 H        -0.250780        -0.251216        -1.930152
 H        -1.349793         1.890947        -2.823987
