19
Iteration:  3111charge 0 multiplicity 1
 C        -0.351162         2.629435        -0.103731
 C        -0.723049         1.205587         0.000797
 C        -2.300153         0.789496         0.246350
 C        -1.891743        -0.540070        -0.495639
 C        -0.821747        -1.122145         0.391544
 C        -0.131245         0.223510         0.913381
 O         0.771891         0.259042         1.698012
 C        -0.951827         0.379517        -1.417742
 O        -1.665337         1.029877        -2.454098
 H         0.377307         2.937422        -0.844656
 H        -1.152253         3.295875         0.102659
 H         0.214971         2.766081         0.923590
 H        -2.635848         0.754111         1.321100
 H        -2.996146         1.603523        -0.262125
 H        -2.616056        -1.266915        -0.996497
 H        -1.133387        -1.742737         1.222276
 H        -0.138640        -1.696516        -0.226689
 H        -0.215339        -0.073889        -1.955945
 H        -1.833748         2.021590        -2.268571
