19
Iteration:  4733
 C        -0.341256         2.628926         0.232742
 C        -0.906543         1.268871         0.004751
 C        -2.383019         0.799382         0.005975
 C        -1.910517        -0.538243        -0.489273
 C        -0.963997        -1.038898         0.682320
 C        -0.215512         0.181583         0.851296
 O         0.982432         0.248842         1.262991
 C        -0.869837         0.377494        -1.346789
 O        -1.595247         0.999321        -2.393064
 H         0.725885         2.369772         0.114545
 H        -0.597242         3.345123        -0.544734
 H        -0.491317         3.002526         1.196061
 H        -2.697733         0.630161         1.193973
 H        -3.141664         1.342688        -0.596449
 H        -2.697193        -1.303685        -0.853590
 H        -1.548207        -1.364553         1.547275
 H        -0.276487        -1.816943         0.433671
 H         0.098489         0.011468        -1.686602
 H        -0.956387         1.673049        -2.691246
