19
Iteration:  1223charge 0 multiplicity 1
 C        -0.212653         2.563389        -0.287082
 C        -0.718115         1.132438        -0.163914
 C        -1.985283         0.732745         0.720063
 C        -1.938958        -0.505763        -0.291155
 C        -0.622772        -1.169875         0.126285
 C         0.187035         0.116597         0.498369
 O         1.066048         0.125108         1.325970
 C        -1.397996         0.436275        -1.357115
 O        -2.293519         1.449351        -1.881498
 H        -0.944413         3.346917        -0.149203
 H         0.631654         2.710413         0.407443
 H         0.208912         2.708556        -1.340552
 H        -1.831343         0.497212         1.792104
 H        -2.755094         1.478370         0.539581
 H        -2.785046        -1.187349        -0.630072
 H        -0.834266        -1.754326         0.976051
 H        -0.110467        -1.740394        -0.537961
 H        -0.978046        -0.062929        -2.182140
 H        -3.174673         1.162087        -1.593797
