19
Iteration:  1065
 C        -0.441015         2.732208         0.069901
 C        -0.800919         1.209550         0.159948
 C        -2.202186         0.848844         0.773652
 C        -2.043217        -0.453392        -0.133277
 C        -0.849518        -1.193156         0.493037
 C         0.195696         0.068014         0.468411
 O         1.384727        -0.043726         0.232825
 C        -1.300692         0.471319        -1.124217
 O        -2.008864         1.286708        -1.993298
 H         0.723707         2.921659         0.128333
 H        -0.676463         3.222399        -0.909611
 H        -1.048197         3.224386         0.858339
 H        -2.279572         0.784832         1.904687
 H        -2.963076         1.581879         0.352065
 H        -2.939568        -1.011796        -0.294050
 H        -1.188105        -1.470467         1.501798
 H        -0.490585        -2.019082        -0.125149
 H        -0.455697        -0.115187        -1.551171
 H        -1.858068         0.802302        -2.878646
