19
Iteration:  1676charge 0 multiplicity 1
 C        -0.266191         2.720637        -0.024071
 C        -0.760287         1.260506         0.061436
 C        -2.263920         0.717551         0.560202
 C        -1.940879        -0.521319        -0.335774
 C        -0.829006        -1.181308         0.346434
 C         0.035820         0.059099         0.610096
 O         1.178658         0.158681         1.090629
 C        -1.232841         0.400899        -1.346285
 O        -1.985532         1.212656        -2.177417
 H         0.821797         2.884129         0.373178
 H        -0.316231         3.020938        -1.080743
 H        -0.883844         3.364925         0.569969
 H        -2.266254         0.619119         1.719857
 H        -3.130212         1.308158         0.202816
 H        -2.778825        -1.087624        -0.698487
 H        -1.142321        -1.635765         1.335814
 H        -0.205155        -1.967583        -0.141819
 H        -0.600336        -0.067367        -2.138573
 H        -1.972674         2.153370        -1.894148
