19
Iteration:  3884
 C        -0.531008         2.739509         0.076417
 C        -0.854336         1.216416         0.046944
 C        -2.435687         0.898603         0.210929
 C        -1.996217        -0.480439        -0.509022
 C        -0.941302        -1.064489         0.593513
 C        -0.114147         0.138789         0.888669
 O         1.023997         0.112537         1.335734
 C        -0.874684         0.293052        -1.245842
 O        -1.478039         1.029722        -2.541161
 H         0.028298         3.115475        -0.701396
 H        -1.352638         3.303037         0.175153
 H         0.118243         2.838810         0.976413
 H        -2.816453         0.877753         1.379059
 H        -3.167280         1.544181        -0.285880
 H        -2.855214        -1.080598        -1.017943
 H        -1.440685        -1.521771         1.472107
 H        -0.122269        -1.679050         0.162726
 H         0.067568        -0.205574        -1.596565
 H        -0.694443         1.635719        -2.691562
