19
Iteration:  3264charge 0 multiplicity 1
 C        -0.528091         2.625225         0.055772
 C        -0.951654         1.217860         0.049379
 C        -2.354453         0.762971         0.234699
 C        -1.936618        -0.521044        -0.505539
 C        -0.878632        -1.110544         0.569078
 C        -0.104956         0.189361         0.791946
 O         0.935812         0.212063         1.367260
 C        -0.922445         0.396846        -1.336789
 O        -1.386223         1.173204        -2.395778
 H         0.587366         2.616404         0.107360
 H        -0.720833         3.039998        -0.962368
 H        -0.968631         3.208033         0.981870
 H        -2.578523         0.680786         1.314547
 H        -3.055659         1.494540        -0.215097
 H        -2.681341        -1.257010        -0.856989
 H        -1.311668        -1.471075         1.517484
 H        -0.230814        -1.921525         0.204195
 H         0.058956        -0.091969        -1.848676
 H        -2.231817         0.826433        -2.758668
