19
Iteration:  4505charge 0 multiplicity 1
 C        -0.306571         2.660816        -0.053258
 C        -0.735227         1.166405        -0.057119
 C        -2.254685         0.776918         0.252024
 C        -1.892010        -0.534044        -0.582631
 C        -0.925655        -1.199167         0.519002
 C        -0.161342         0.141629         0.893875
 O         0.859035         0.322392         1.619900
 C        -1.008764         0.353232        -1.404258
 O        -1.724579         1.164797        -2.354797
 H         0.788107         2.681854         0.438897
 H        -0.064644         3.028431        -1.113833
 H        -0.959922         3.361539         0.467116
 H        -2.275349         0.637719         1.328136
 H        -2.939967         1.463549        -0.107075
 H        -2.540070        -1.219813        -1.146022
 H        -1.621222        -1.496006         1.280779
 H        -0.413251        -2.037909         0.026231
 H        -0.038527        -0.032095        -1.871907
 H        -1.156772         1.441804        -3.012894
