19
Iteration:  3679
 C        -0.211617         2.597484         0.007307
 C        -0.766404         1.180610        -0.015599
 C        -2.414006         0.744795         0.203831
 C        -1.799644        -0.530777        -0.469472
 C        -0.855655        -1.202965         0.506885
 C        -0.128921         0.136399         0.830713
 O         0.789140         0.339724         1.582061
 C        -0.947008         0.435793        -1.449972
 O        -1.777917         1.175107        -2.364841
 H         0.872885         2.590667         0.166403
 H        -0.578389         3.111805        -0.905917
 H        -0.706682         3.211672         0.867240
 H        -2.450347         0.795260         1.235758
 H        -2.929965         1.460275        -0.324882
 H        -2.505207        -1.381940        -0.868118
 H        -1.435794        -1.515291         1.397842
 H        -0.152791        -2.063834         0.253888
 H        -0.082052        -0.057139        -2.063826
 H        -1.215619         1.291847        -3.257706
