19
Iteration:  4690charge 0 multiplicity 1
 C        -0.553678         2.683482         0.106745
 C        -0.934723         1.255120         0.080874
 C        -2.405758         0.850695         0.371735
 C        -1.978083        -0.397924        -0.465775
 C        -1.015982        -1.095311         0.553406
 C        -0.073508         0.187112         0.757075
 O         0.994806         0.179391         1.330709
 C        -0.903452         0.311666        -1.386095
 O        -1.344739         0.958169        -2.472843
 H         0.292198         2.951983        -0.603986
 H        -1.356022         3.333204        -0.305144
 H        -0.155333         3.076481         1.033213
 H        -2.727561         0.664146         1.448832
 H        -2.994791         1.536889        -0.214073
 H        -2.818751        -1.069080        -0.896136
 H        -1.441527        -1.470240         1.453253
 H        -0.468832        -1.794700        -0.004057
 H        -0.058622        -0.328256        -1.486097
 H        -0.754442         1.365834        -3.038333
