19
Iteration:  3209
 C        -0.213710         2.594643        -0.004526
 C        -0.816263         1.239387        -0.097560
 C        -2.295660         0.818772         0.259903
 C        -1.782910        -0.507849        -0.530383
 C        -0.722572        -1.122927         0.405855
 C        -0.128804         0.124443         0.803286
 O         0.655036         0.288665         1.659002
 C        -0.991730         0.358854        -1.406433
 O        -1.771883         1.113527        -2.280336
 H         0.870260         2.670380         0.270915
 H        -0.635894         3.290420        -0.740902
 H        -0.753288         3.181797         0.928760
 H        -2.410269         0.843414         1.331413
 H        -2.859257         1.452424        -0.488306
 H        -2.443553        -1.261764        -1.012449
 H        -1.191844        -1.564732         1.269472
 H        -0.079043        -1.729090        -0.219048
 H         0.036238         0.003202        -2.016156
 H        -1.729287         0.629493        -3.198518
