19
Iteration:  1104charge 0 multiplicity 1
 C        -0.268390         2.570580         0.068104
 C        -0.789770         1.226697         0.026368
 C        -2.116311         0.798142         0.792860
 C        -2.048690        -0.441683        -0.187652
 C        -0.773385        -1.078106         0.381342
 C         0.124456         0.107283         0.419253
 O         1.315674         0.045673         0.586811
 C        -1.357959         0.485285        -1.229921
 O        -2.112528         1.250587        -2.064878
 H         0.408843         2.724312        -0.687786
 H        -1.111124         3.234813         0.021067
 H         0.290226         2.752175         1.019283
 H        -2.035937         0.677316         1.849003
 H        -2.851888         1.526776         0.553931
 H        -2.813258        -1.268411        -0.450816
 H        -1.003990        -1.348253         1.415001
 H        -0.224098        -1.999109        -0.097195
 H        -0.594936        -0.005362        -1.855965
 H        -3.021707         0.961970        -2.054141
