19
Iteration:    52charge 0 multiplicity 1
 C         0.012528         2.574296        -0.129070
 C        -0.615457         1.205627        -0.184431
 C        -1.638623         0.668254         0.993125
 C        -2.020143        -0.482087        -0.097432
 C        -0.634328        -1.249280        -0.201042
 C         0.312857        -0.003955        -0.007363
 O         1.423568        -0.038311         0.461164
 C        -1.758724         0.695268        -1.071668
 O        -3.003231         1.456388        -1.086567
 H         1.051322         2.556506        -0.442194
 H        -0.579461         3.378255        -0.740435
 H         0.175672         3.036094         0.842282
 H        -1.075011         0.318378         1.843999
 H        -2.373243         1.443005         1.163257
 H        -2.961760        -1.045651        -0.130040
 H        -0.415276        -2.130166         0.579454
 H        -0.479526        -1.413151        -1.258040
 H        -1.437877         0.482496        -2.129888
 H        -3.020286         1.795879        -2.013086
