19
Iteration:   284charge 0 multiplicity 1
 C        -0.256689         2.692242        -0.073488
 C        -0.675748         1.218468        -0.036350
 C        -1.739751         0.706517         0.991645
 C        -2.074418        -0.435641        -0.017948
 C        -0.725866        -1.297384         0.182367
 C         0.296537        -0.006936         0.084517
 O         1.486766        -0.115153         0.220571
 C        -1.647615         0.577797        -1.135031
 O        -2.630516         1.524566        -1.429900
 H        -0.348315         3.089639        -1.108240
 H        -1.029191         3.236595         0.509988
 H         0.713637         2.857885         0.493814
 H        -1.353144         0.454532         1.945666
 H        -2.475751         1.485672         0.928025
 H        -3.007785        -0.936795        -0.032854
 H        -0.400600        -1.858844         1.109168
 H        -0.368928        -1.998801        -0.639727
 H        -1.184943         0.194495        -2.117355
 H        -2.840336         1.475452        -2.369234
