19
Iteration:  1656charge 0 multiplicity 1
 C        -0.320517         2.693537         0.092384
 C        -0.876736         1.235759         0.056448
 C        -2.263525         0.750200         0.552173
 C        -2.034195        -0.490947        -0.300179
 C        -0.855611        -1.164242         0.449177
 C         0.024610         0.127918         0.565131
 O         1.226289         0.154746         0.865156
 C        -1.175469         0.446485        -1.258757
 O        -1.866106         1.141277        -2.244821
 H         0.525748         2.473910         0.888469
 H         0.088131         3.020690        -0.881309
 H        -1.263716         3.255062         0.508653
 H        -2.302284         0.465068         1.723986
 H        -3.030329         1.537646         0.317140
 H        -2.847729        -1.125545        -0.626030
 H        -1.095959        -1.694416         1.375301
 H        -0.330907        -1.904830        -0.103000
 H        -0.205694         0.045272        -1.704759
 H        -1.753891         2.015151        -1.989863
