19
Iteration:  3246charge 0 multiplicity 1
 C        -0.411540         2.646564         0.049449
 C        -0.847452         1.167042         0.001352
 C        -2.341490         0.776824         0.345170
 C        -1.876116        -0.505777        -0.522810
 C        -0.897951        -1.166298         0.483502
 C        -0.055785         0.079822         0.855508
 O         0.895074         0.318903         1.508145
 C        -0.964940         0.387971        -1.354543
 O        -1.525491         1.203693        -2.501475
 H         0.618555         2.909148         0.254880
 H        -0.706349         3.052119        -0.957316
 H        -1.047326         3.055819         0.732445
 H        -2.826270         0.748176         1.331784
 H        -3.014240         1.327392        -0.256846
 H        -2.554995        -1.179402        -1.000946
 H        -1.465656        -1.530790         1.347622
 H        -0.360401        -2.044121         0.148245
 H        -0.052834        -0.057803        -1.625520
 H        -2.221420         0.743909        -3.038290
