19
Iteration:  2817
 C        -0.307691         2.617810        -0.022380
 C        -0.853126         1.267492        -0.066123
 C        -2.382250         0.687821         0.399742
 C        -1.893219        -0.529325        -0.496107
 C        -0.891398        -1.119134         0.464498
 C        -0.048052         0.177936         0.741511
 O         0.853073         0.253002         1.571046
 C        -1.042294         0.410310        -1.323969
 O        -1.535651         1.131739        -2.520225
 H         0.124128         2.797544         1.007656
 H         0.547488         2.702643        -0.722471
 H        -1.142270         3.406462        -0.152757
 H        -2.371622         0.595969         1.452571
 H        -3.157259         1.424835         0.180408
 H        -2.577624        -1.331705        -0.996989
 H        -1.284608        -1.503385         1.456926
 H        -0.199825        -1.815602        -0.119057
 H        -0.042056        -0.046481        -1.776178
 H        -2.428164         1.471870        -2.182875
