19
Iteration:  3148
 C        -0.175970         2.563167        -0.134226
 C        -0.767880         1.145127        -0.094840
 C        -2.242448         0.717199         0.320247
 C        -1.829345        -0.571183        -0.495847
 C        -0.722776        -1.174663         0.366711
 C        -0.116858         0.201562         0.794945
 O         0.542478         0.368423         1.777824
 C        -0.928370         0.384418        -1.414511
 O        -1.846775         1.164430        -2.353184
 H         0.620062         2.812265        -0.815925
 H        -0.987331         3.291795        -0.357212
 H         0.113919         2.665420         0.819253
 H        -2.353990         0.841818         1.429811
 H        -2.897220         1.371330        -0.237695
 H        -2.562447        -1.086964        -1.039786
 H        -1.008034        -1.646311         1.332406
 H         0.026347        -1.872711        -0.096059
 H         0.018539         0.055930        -1.847346
 H        -1.192262         1.865195        -2.747431
