19
Iteration:  1854charge 0 multiplicity 1
 C        -0.409546         2.613076         0.050324
 C        -0.896413         1.210560         0.085445
 C        -2.362511         0.771748         0.501937
 C        -2.020814        -0.531711        -0.325206
 C        -0.802874        -1.071127         0.503909
 C         0.032663         0.112241         0.655749
 O         1.227217         0.127204         0.953454
 C        -1.174949         0.380642        -1.271124
 O        -1.763011         1.317387        -2.244999
 H        -1.159777         3.245673         0.475493
 H         0.511773         2.570728         0.678192
 H        -0.167096         2.805490        -1.023155
 H        -2.643847         0.660675         1.650028
 H        -3.097071         1.453272        -0.035041
 H        -2.678460        -1.340575        -0.661451
 H        -1.023117        -1.427705         1.525051
 H        -0.248793        -1.865091        -0.042524
 H        -0.285033        -0.121765        -1.782055
 H        -1.491548         1.098903        -3.206853
