19
Iteration:  3182
 C        -0.092955         2.602834        -0.038125
 C        -0.743560         1.208978        -0.071470
 C        -2.261145         0.712939         0.299790
 C        -1.856912        -0.581730        -0.591098
 C        -0.725365        -1.215818         0.319281
 C        -0.083490         0.166402         0.876911
 O         0.644180         0.430736         1.876126
 C        -0.984316         0.331383        -1.450384
 O        -1.922977         1.196216        -2.393764
 H         0.954823         2.627461        -0.307586
 H        -0.745300         3.260882        -0.644506
 H        -0.175627         3.102057         0.864105
 H        -2.595883         0.678687         1.373532
 H        -2.923938         1.275717        -0.334333
 H        -2.656305        -1.157658        -1.093784
 H        -1.226792        -1.676114         1.225322
 H        -0.009023        -1.922679        -0.211185
 H        -0.087345         0.003675        -2.002801
 H        -1.589619         1.096326        -3.373897
