19
Iteration:  1809charge 0 multiplicity 1
 C        -0.236925         2.614088        -0.019505
 C        -0.750693         1.219041        -0.054375
 C        -2.160114         0.824945         0.476484
 C        -1.900973        -0.486449        -0.366280
 C        -0.756384        -1.185389         0.399562
 C         0.038988         0.038625         0.540618
 O         1.014351         0.174221         1.285692
 C        -1.158536         0.508949        -1.389719
 O        -2.091644         1.213541        -2.079235
 H        -1.122284         3.123311        -0.479738
 H        -0.115356         2.830759         1.030386
 H         0.621911         2.608331        -0.705621
 H        -2.250635         0.754065         1.647782
 H        -3.004014         1.491387         0.110264
 H        -2.769802        -1.053964        -0.679512
 H        -1.145789        -1.613809         1.351248
 H        -0.228754        -1.956878        -0.250104
 H        -0.249868         0.122783        -1.981227
 H        -1.881092         1.099169        -3.051318
