19
Iteration:  2439charge 0 multiplicity 1
 C        -0.470826         2.706858         0.201136
 C        -0.921728         1.208751         0.066603
 C        -2.344849         0.803272         0.359968
 C        -1.995162        -0.513479        -0.402963
 C        -0.889154        -1.068090         0.541920
 C        -0.048754         0.224700         0.646249
 O         1.073779         0.150951         1.088849
 C        -1.054503         0.275493        -1.320864
 O        -1.471105         1.130036        -2.340586
 H         0.356038         2.911538         0.975182
 H         0.008026         3.076955        -0.729297
 H        -1.272086         3.436672         0.432128
 H        -2.702247         0.754551         1.295001
 H        -3.045972         1.332833        -0.274819
 H        -2.827752        -1.065560        -0.958340
 H        -1.260363        -1.366399         1.554820
 H        -0.256855        -1.946867         0.140447
 H        -0.025836        -0.115932        -1.683321
 H        -2.375096         0.846620        -2.507340
