19
Iteration:  4860charge 0 multiplicity 1
 C        -0.119670         2.567799        -0.112288
 C        -0.738525         1.222133        -0.154009
 C        -2.227359         0.715382         0.267332
 C        -1.831160        -0.549098        -0.569458
 C        -0.813890        -1.129198         0.362625
 C        -0.074346         0.202618         0.856386
 O         0.638258         0.320615         1.761838
 C        -0.996932         0.432553        -1.417594
 O        -1.891818         1.106995        -2.236627
 H        -0.052035         2.977377         0.956112
 H         0.956028         2.459628        -0.529004
 H        -0.766617         3.378329        -0.721745
 H        -2.507823         0.537309         1.376316
 H        -2.882292         1.335412        -0.315055
 H        -2.462341        -1.239772        -0.979950
 H        -1.295010        -1.702529         1.234175
 H        -0.105778        -1.845728        -0.159774
 H        -0.211329        -0.070183        -2.008573
 H        -1.483291         1.796234        -2.704266
