19
Iteration:  1961
 C        -0.286879         2.516105         0.004963
 C        -0.699314         1.174484         0.058523
 C        -2.232603         0.778919         0.437212
 C        -1.950934        -0.484012        -0.450543
 C        -0.783720        -1.089603         0.312738
 C         0.001372         0.143434         0.657968
 O         1.008903         0.259482         1.330525
 C        -1.098723         0.435694        -1.375633
 O        -1.996326         1.214924        -2.158227
 H         0.576472         2.753731         0.762589
 H         0.034385         2.730745        -1.030876
 H        -1.028262         3.303378         0.230472
 H        -2.338148         0.708203         1.454293
 H        -2.914213         1.564277         0.089980
 H        -2.691841        -1.184114        -0.848160
 H        -1.062908        -1.745178         1.201832
 H        -0.126884        -1.876828        -0.210948
 H        -0.318336        -0.110280        -1.871512
 H        -2.199096         0.586444        -2.939724
