19
Iteration:  3200charge 0 multiplicity 1
 C        -0.209056         2.579895        -0.017308
 C        -0.760939         1.191941        -0.068015
 C        -2.239695         0.776967         0.156263
 C        -1.793057        -0.532415        -0.455069
 C        -0.737218        -1.170985         0.414743
 C        -0.099882         0.124604         0.766496
 O         0.619228         0.333312         1.743910
 C        -1.001411         0.494172        -1.429036
 O        -1.847089         1.125212        -2.310161
 H         0.896447         2.492552        -0.000373
 H        -0.487074         3.279848        -0.845237
 H        -0.447889         3.025629         0.948860
 H        -2.565399         0.801199         1.200939
 H        -2.963031         1.436165        -0.332350
 H        -2.472931        -1.205316        -0.880137
 H        -0.996426        -1.823590         1.215541
 H        -0.033595        -1.704821        -0.201737
 H        -0.133105         0.116639        -1.929244
 H        -1.546222         0.693362        -3.185810
