19
Iteration:  3765charge 0 multiplicity 1
 C        -0.276958         2.701367        -0.047361
 C        -0.643544         1.217515        -0.087366
 C        -2.266632         0.778196         0.307819
 C        -1.907438        -0.415862        -0.530261
 C        -0.857681        -1.143096         0.375743
 C        -0.023863         0.142814         0.803647
 O         0.670791         0.283354         1.805335
 C        -1.025668         0.290549        -1.451968
 O        -1.737507         0.998187        -2.456643
 H         0.387140         3.063180        -0.851846
 H        -1.100909         3.412370         0.082450
 H         0.420587         2.872123         0.939499
 H        -2.402610         0.539500         1.363575
 H        -2.895297         1.597919         0.071385
 H        -2.806937        -1.033832        -0.933047
 H        -1.316773        -1.714128         1.200639
 H        -0.054384        -1.684653        -0.160047
 H        -0.217713        -0.304950        -1.873237
 H        -1.407384         1.894795        -2.524756
