19
Iteration:  3087
 C        -0.361458         2.680853         0.033491
 C        -0.905344         1.262241        -0.021863
 C        -2.301006         0.711199         0.279924
 C        -1.912514        -0.528340        -0.464378
 C        -0.927351        -1.123010         0.553361
 C        -0.069819         0.127973         0.772400
 O         0.845729         0.266069         1.566340
 C        -0.916518         0.430344        -1.394412
 O        -1.540696         1.017430        -2.565756
 H         0.371377         2.855888        -0.802842
 H        -1.137487         3.457688         0.133721
 H         0.231888         2.914987         1.036884
 H        -2.490151         0.769993         1.383998
 H        -3.183706         1.222906        -0.204300
 H        -2.729050        -1.068091        -1.042996
 H        -1.408041        -1.403241         1.515603
 H        -0.311073        -1.964814         0.255530
 H        -0.015578         0.081289        -1.815096
 H        -1.949566         1.866459        -2.246883
