19
Iteration:  3885charge 0 multiplicity 1
 C        -0.530506         2.732740         0.077422
 C        -0.855985         1.227186         0.052755
 C        -2.428734         0.898484         0.212270
 C        -2.006067        -0.486637        -0.508470
 C        -0.935674        -1.065387         0.598705
 C        -0.114619         0.143374         0.889017
 O         1.017570         0.109093         1.335370
 C        -0.868666         0.297477        -1.256167
 O        -1.474981         1.028657        -2.543921
 H         0.047013         3.102417        -0.712542
 H        -1.372821         3.336610         0.186733
 H         0.117746         2.850221         0.973944
 H        -2.788274         0.879238         1.383808
 H        -3.161487         1.536105        -0.283993
 H        -2.843514        -1.100770        -0.999043
 H        -1.435992        -1.524384         1.443579
 H        -0.137462        -1.694652         0.168277
 H         0.053794        -0.179861        -1.603334
 H        -0.745379         1.625547        -2.682479
