19
Iteration:   108
 C        -0.117217         2.543345        -0.304436
 C        -0.669449         1.141129        -0.070921
 C        -1.702980         0.477128         1.069020
 C        -1.976187        -0.479547        -0.060442
 C        -0.653945        -1.244017        -0.113120
 C         0.301091        -0.004370         0.077005
 O         1.456238         0.059080         0.399924
 C        -1.797974         0.665179        -1.053196
 O        -2.735808         1.679402        -1.321963
 H        -0.732090         3.215701        -0.921804
 H        -0.175805         2.999844         0.774130
 H         0.920553         2.650419        -0.554642
 H        -1.383620         0.098210         2.005366
 H        -2.569663         1.062579         1.294374
 H        -2.839210        -1.090679        -0.061980
 H        -0.481013        -2.107937         0.687216
 H        -0.579052        -1.737801        -1.077454
 H        -1.530673         0.390883        -2.073584
 H        -3.234172         1.539883        -0.528915
