19
Iteration:  2182
 C        -0.433118         2.688734         0.100959
 C        -0.849632         1.251272         0.121068
 C        -2.326525         0.730588         0.378844
 C        -1.976784        -0.473777        -0.424027
 C        -0.916734        -1.063823         0.562826
 C        -0.078164         0.166138         0.680627
 O         1.109929         0.104404         0.949412
 C        -0.996901         0.434373        -1.298877
 O        -1.726760         1.130973        -2.185756
 H        -0.090542         2.989516        -0.921044
 H        -1.244508         3.478665         0.368408
 H         0.493464         2.714004         0.758329
 H        -2.468401         0.492906         1.386599
 H        -3.078633         1.329753        -0.025038
 H        -2.609139        -1.269393        -0.809427
 H        -1.139962        -1.546091         1.573036
 H        -0.177659        -1.754881        -0.037774
 H        -0.145008        -0.170484        -1.599111
 H        -1.210537         1.180433        -3.043836
