19
Iteration:  1744charge 0 multiplicity 1
 C        -0.061561         2.525643        -0.112763
 C        -0.694727         1.225586        -0.173945
 C        -2.040558         0.745201         0.599892
 C        -1.921743        -0.504178        -0.399258
 C        -0.647373        -1.217998         0.184061
 C         0.097485         0.105712         0.540199
 O         0.784380         0.270737         1.484385
 C        -1.274451         0.547263        -1.370057
 O        -2.265839         1.159207        -2.065459
 H         0.614353         2.863572        -0.936042
 H        -0.689945         3.398847         0.045583
 H         0.784262         2.549861         0.639885
 H        -1.865564         0.679991         1.776529
 H        -2.973549         1.357635         0.402037
 H        -2.674716        -1.223932        -0.703231
 H        -0.877831        -1.826724         1.057042
 H        -0.076395        -1.803880        -0.525604
 H        -0.496415         0.002313        -1.993898
 H        -2.022872         2.007933        -2.345636
