19
Iteration:  3832charge 0 multiplicity 1
 C        -0.286159         2.603888         0.079406
 C        -0.829964         1.219996        -0.022342
 C        -2.463749         0.731992         0.162731
 C        -1.880478        -0.510056        -0.528422
 C        -0.963996        -1.106135         0.645498
 C        -0.163261         0.204650         0.857395
 O         0.919684         0.284728         1.364661
 C        -0.933534         0.423268        -1.314903
 O        -1.559495         1.100770        -2.380138
 H         0.344462         2.957710        -0.793714
 H        -1.165771         3.364128         0.233927
 H         0.425002         2.534578         0.999117
 H        -2.736469         0.680031         1.238902
 H        -3.235586         1.218578        -0.380085
 H        -2.548973        -1.319108        -0.900747
 H        -1.753894        -1.551622         1.214565
 H        -0.361374        -1.917844         0.220051
 H        -0.077817        -0.043337        -1.750675
 H        -0.871574         1.115288        -3.052739
