19
Iteration:   100
 C        -0.145887         2.539000        -0.287995
 C        -0.682584         1.127156        -0.158503
 C        -1.675492         0.488899         1.067328
 C        -1.995150        -0.507808        -0.042195
 C        -0.631445        -1.284367        -0.162130
 C         0.261564        -0.026532         0.106614
 O         1.464639         0.074825         0.446970
 C        -1.762665         0.696013        -1.063675
 O        -2.782844         1.667107        -1.269459
 H        -0.361942         3.133522        -1.174139
 H        -0.275023         3.137684         0.535518
 H         0.951682         2.401942        -0.380302
 H        -1.267101         0.162859         2.021734
 H        -2.463473         1.242616         1.188192
 H        -2.894637        -1.127173        -0.135920
 H        -0.447044        -1.952053         0.606128
 H        -0.401410        -1.647551        -1.177965
 H        -1.421236         0.454045        -2.038318
 H        -3.232570         1.952704        -0.475899
