19
Iteration:  4205charge 0 multiplicity 1
 C        -0.331131         2.557709        -0.021135
 C        -0.882757         1.187582         0.074152
 C        -2.369173         0.837163         0.190465
 C        -1.933712        -0.508432        -0.510615
 C        -0.906385        -1.157539         0.504556
 C        -0.151238         0.102535         0.837855
 O         0.898002         0.350462         1.423391
 C        -0.947029         0.355257        -1.340305
 O        -1.570468         1.109767        -2.314263
 H         0.682283         2.532770        -0.364726
 H        -0.837837         3.457256        -0.382237
 H        -0.135423         2.783268         1.097186
 H        -2.945170         0.739818         1.134375
 H        -2.918811         1.491717        -0.625710
 H        -2.607019        -1.054332        -1.165050
 H        -1.265979        -1.386726         1.513040
 H        -0.353779        -1.997634         0.142270
 H         0.041993         0.071195        -1.597290
 H        -1.120518         1.518569        -2.980584
