19
Iteration:  4342
 C        -0.185440         2.614886        -0.035971
 C        -0.782120         1.194832        -0.043453
 C        -2.251977         0.747889         0.242307
 C        -1.874717        -0.583558        -0.598738
 C        -0.905240        -1.168458         0.480002
 C        -0.159377         0.170063         0.859607
 O         0.756261         0.394325         1.592960
 C        -0.982469         0.361322        -1.382164
 O        -1.726214         1.164385        -2.299494
 H         0.760532         2.410768        -0.482788
 H        -0.747869         3.291633        -0.634912
 H        -0.030364         2.912624         0.964812
 H        -2.684834         0.361258         1.326396
 H        -2.917727         1.380200        -0.273988
 H        -2.555165        -1.311481        -1.063622
 H        -1.634667        -1.562693         1.188687
 H        -0.194242        -1.981897         0.167108
 H        -0.059129        -0.110469        -1.745349
 H        -1.203808         1.647185        -3.058471
