19
Iteration:  4297
 C        -0.176419         2.646096        -0.073971
 C        -0.722580         1.218677        -0.054056
 C        -2.160612         0.824322         0.245407
 C        -1.881509        -0.514816        -0.462416
 C        -0.762094        -1.101888         0.293915
 C        -0.091049         0.131193         0.795548
 O         0.598717         0.265215         1.851819
 C        -1.046455         0.344737        -1.471055
 O        -1.839727         1.064955        -2.339559
 H         0.923909         2.641422        -0.044869
 H        -0.516510         3.223884        -0.922439
 H        -0.484739         3.166782         0.754048
 H        -2.302534         0.799729         1.446394
 H        -2.900096         1.474285        -0.313305
 H        -2.783944        -1.076229        -0.850665
 H        -1.033719        -1.750652         1.128915
 H        -0.089664        -1.671902        -0.377255
 H        -0.260475        -0.144515        -2.060282
 H        -1.099155         1.483604        -2.887839
