19
Iteration:  2668charge 0 multiplicity 1
 C        -0.324036         2.593912         0.088914
 C        -0.869135         1.190253         0.090486
 C        -2.277657         0.715785         0.358258
 C        -1.959138        -0.500377        -0.539733
 C        -0.897503        -1.061996         0.500419
 C        -0.129793         0.186774         0.854139
 O         0.975195         0.284966         1.377677
 C        -1.048122         0.417317        -1.386377
 O        -1.574206         1.053716        -2.508085
 H        -1.265323         3.143454        -0.088276
 H         0.138037         2.951359         1.029076
 H         0.436852         2.746337        -0.644813
 H        -2.408930         0.611891         1.559233
 H        -3.136465         1.334374        -0.144316
 H        -2.525799        -1.190923        -1.125757
 H        -1.439768        -1.506886         1.363196
 H        -0.148385        -1.712748         0.008663
 H        -0.168894        -0.041319        -1.764539
 H        -2.298733         1.755031        -2.373171
