19
Iteration:  1911charge 0 multiplicity 1
 C        -0.416472         2.609804         0.234534
 C        -0.860597         1.247222         0.068733
 C        -2.249236         0.758942         0.437070
 C        -1.968430        -0.500919        -0.395914
 C        -0.891545        -1.062700         0.557416
 C         0.019064         0.131783         0.628851
 O         1.193888         0.154667         0.931598
 C        -1.135732         0.467490        -1.301013
 O        -1.756763         1.166710        -2.330579
 H        -0.277743         2.833128         1.249354
 H         0.588174         2.790880        -0.299015
 H        -1.246138         3.339191        -0.101465
 H        -2.703852         0.588187         1.561004
 H        -3.038494         1.330750        -0.122394
 H        -2.777871        -1.192269        -0.698825
 H        -1.292751        -1.268684         1.531172
 H        -0.360644        -1.945803         0.292593
 H        -0.133326        -0.012608        -1.557291
 H        -2.177366         0.592282        -2.913410
