19
Iteration:  2214charge 0 multiplicity 1
 C        -0.338544         2.616398         0.126583
 C        -0.806100         1.203719         0.094285
 C        -2.351056         0.872892         0.327579
 C        -1.965774        -0.505828        -0.380363
 C        -0.812906        -1.215449         0.464812
 C         0.066793         0.030359         0.676730
 O         1.135308         0.273928         1.215249
 C        -1.141611         0.479992        -1.309672
 O        -1.900171         1.080453        -2.344066
 H        -0.216496         3.037860        -0.889346
 H        -0.846936         3.372969         0.784705
 H         0.661185         2.697459         0.595031
 H        -2.724414         1.002582         1.359819
 H        -2.982506         1.517911        -0.238563
 H        -2.726445        -1.152007        -0.795555
 H        -1.120280        -1.716072         1.426874
 H        -0.380240        -1.984648        -0.275082
 H        -0.250976        -0.069086        -1.781526
 H        -1.458788         1.844427        -2.795625
