19
Iteration:  2147charge 0 multiplicity 1
 C        -0.497442         2.665561         0.156929
 C        -0.855774         1.190138         0.112197
 C        -2.319556         0.724175         0.403092
 C        -2.046205        -0.474166        -0.366551
 C        -0.978932        -1.187069         0.653451
 C         0.052922         0.081767         0.735860
 O         1.266031         0.204694         0.950390
 C        -1.121649         0.435153        -1.318704
 O        -1.655207         1.277261        -2.390916
 H        -0.026911         2.776232        -0.879156
 H        -1.331840         3.342304         0.339550
 H         0.278740         2.914234         0.896381
 H        -2.775172         0.529501         1.397722
 H        -2.983846         1.485001        -0.076639
 H        -2.731344        -1.280230        -0.599431
 H        -1.365441        -1.407671         1.690665
 H        -0.412642        -2.096357         0.287433
 H        -0.321133        -0.039333        -1.941156
 H        -1.365507         0.857081        -3.261058
