19
Iteration:  3181charge 0 multiplicity 1
 C        -0.089262         2.608286        -0.044673
 C        -0.745124         1.199603        -0.061378
 C        -2.260161         0.703348         0.299745
 C        -1.849420        -0.577154        -0.595386
 C        -0.727986        -1.213868         0.317270
 C        -0.086521         0.166880         0.877558
 O         0.643931         0.435043         1.880858
 C        -0.991048         0.324259        -1.464403
 O        -1.921105         1.197862        -2.392494
 H         0.948613         2.645238        -0.322503
 H        -0.740886         3.292324        -0.633674
 H        -0.153980         3.064169         0.853693
 H        -2.584976         0.690924         1.372054
 H        -2.953174         1.318624        -0.270630
 H        -2.606527        -1.151525        -1.087669
 H        -1.234841        -1.679042         1.198765
 H        -0.016262        -1.922290        -0.190128
 H        -0.153917        -0.000853        -1.981455
 H        -1.563634         1.098762        -3.346151
