19
Iteration:  3572charge 0 multiplicity 1
 C        -0.416706         2.660649         0.128184
 C        -0.979319         1.224054         0.018982
 C        -2.411360         0.779534         0.184835
 C        -1.881444        -0.570670        -0.523523
 C        -0.991463        -1.150002         0.629400
 C        -0.124485         0.135991         0.882238
 O         1.012087         0.281688         1.283551
 C        -0.908578         0.356799        -1.318938
 O        -1.417275         1.100662        -2.464897
 H         0.565371         2.675862        -0.387945
 H        -1.027392         3.255378        -0.646131
 H        -0.343431         3.213470         0.984025
 H        -2.855465         0.727710         1.252297
 H        -3.151279         1.357856        -0.348905
 H        -2.523000        -1.200046        -1.011415
 H        -1.530822        -1.281567         1.564616
 H        -0.531420        -2.112118         0.345742
 H         0.086660         0.251701        -1.500848
 H        -2.105042         1.764103        -2.041520
