19
Iteration:  1066charge 0 multiplicity 1
 C        -0.441648         2.739371         0.073882
 C        -0.804162         1.209974         0.161184
 C        -2.203708         0.850780         0.773420
 C        -2.046456        -0.454344        -0.136178
 C        -0.855787        -1.209891         0.493943
 C         0.204825         0.067769         0.471991
 O         1.388142        -0.041595         0.234996
 C        -1.299946         0.476294        -1.127757
 O        -2.009597         1.287344        -1.998014
 H         0.726927         2.922805         0.098859
 H        -0.692377         3.220633        -0.908955
 H        -1.002994         3.242947         0.854812
 H        -2.258874         0.799135         1.913132
 H        -2.958444         1.595780         0.362342
 H        -2.938480        -1.049092        -0.294916
 H        -1.183159        -1.505384         1.492481
 H        -0.500568        -1.976034        -0.094701
 H        -0.469206        -0.104052        -1.563149
 H        -1.881079         0.771200        -2.869028
