19
Iteration:  4779charge 0 multiplicity 1
 C        -0.261976         2.630290         0.042286
 C        -0.838180         1.223924        -0.015322
 C        -2.250746         0.788721         0.227378
 C        -1.921294        -0.517902        -0.528358
 C        -0.938683        -1.167221         0.478011
 C        -0.131855         0.213567         0.865405
 O         0.860814         0.291962         1.557825
 C        -0.909384         0.400228        -1.377313
 O        -1.712746         1.035224        -2.399772
 H         0.650291         2.626723         0.675823
 H        -0.090498         3.000777        -1.002021
 H        -1.095873         3.215743         0.492691
 H        -2.667473         0.770708         1.365034
 H        -2.978434         1.437042        -0.468924
 H        -2.732462        -1.107917        -1.132563
 H        -1.284872        -1.615495         1.379221
 H        -0.388203        -1.916901        -0.103193
 H        -0.026362        -0.077551        -1.765660
 H        -1.206753         1.583192        -2.934711
