19
Iteration:  1053charge 0 multiplicity 1
 C        -0.420299         2.630280         0.064959
 C        -0.766498         1.242539         0.164207
 C        -2.158589         0.806153         0.753759
 C        -2.055312        -0.393310        -0.077064
 C        -0.798037        -1.040878         0.503631
 C         0.123211         0.046421         0.388065
 O         1.309428        -0.043474         0.242175
 C        -1.278187         0.390176        -1.143289
 O        -2.013694         1.273685        -1.963665
 H         0.535295         2.893269         0.637556
 H        -0.573383         3.001623        -0.973976
 H        -1.196730         3.200616         0.689687
 H        -2.387539         0.632032         1.831170
 H        -2.989040         1.419271         0.307632
 H        -2.866886        -0.970428        -0.446532
 H        -0.851171        -1.301513         1.583585
 H        -0.395442        -2.021754         0.046825
 H        -0.547859        -0.070052        -1.849561
 H        -1.681240         1.364489        -2.824825
