19
Iteration:   121
 C        -0.138932         2.581773        -0.145429
 C        -0.654617         1.158057         0.005143
 C        -1.747274         0.564132         1.087849
 C        -2.023273        -0.484168        -0.054227
 C        -0.656578        -1.218240        -0.084187
 C         0.268279        -0.004521         0.028654
 O         1.493740         0.014995         0.315974
 C        -1.720403         0.589014        -1.143626
 O        -2.716911         1.641856        -1.328501
 H        -1.008063         3.077980        -0.579157
 H         0.207232         3.103529         0.727556
 H         0.595326         2.574944        -0.961810
 H        -1.230881         0.141339         1.916611
 H        -2.526071         1.259094         1.360707
 H        -2.910934        -1.109109        -0.057285
 H        -0.602668        -1.859356         0.795973
 H        -0.398691        -1.756625        -1.006697
 H        -1.314954         0.258825        -2.060435
 H        -3.641329         1.587173        -0.947002
