19
Iteration:  4429
 C        -0.438299         2.665174         0.210176
 C        -0.882324         1.243824         0.024893
 C        -2.329350         0.919588         0.273513
 C        -1.973929        -0.489328        -0.484101
 C        -0.971925        -1.113295         0.570160
 C        -0.131070         0.122139         0.714816
 O         0.961341         0.257514         1.301643
 C        -0.933011         0.379948        -1.296214
 O        -1.458060         0.937803        -2.467240
 H         0.581456         2.964444        -0.117402
 H        -1.144377         3.274483        -0.355846
 H        -0.688169         3.007881         1.146265
 H        -2.658128         0.740044         1.364162
 H        -3.145745         1.390765        -0.134885
 H        -2.722410        -1.017526        -1.052000
 H        -1.668003        -1.330438         1.351911
 H        -0.443418        -2.014945         0.249757
 H        -0.008475        -0.117514        -1.619638
 H        -0.702538         1.248143        -3.016124
