19
Iteration:  1990
 C        -0.164368         2.713914        -0.239739
 C        -0.765086         1.301304        -0.078304
 C        -2.182048         0.635813         0.500693
 C        -1.892545        -0.621264        -0.347630
 C        -0.673975        -1.274890         0.283822
 C         0.029706         0.077226         0.707746
 O         0.863703         0.203701         1.550097
 C        -1.226440         0.524438        -1.342446
 O        -2.051969         1.349677        -2.207590
 H         0.868662         2.656879         0.239858
 H         0.130417         2.977190        -1.206240
 H        -0.550005         3.614110         0.163960
 H        -2.138411         0.648383         1.685781
 H        -3.073513         1.166485         0.138636
 H        -2.652298        -1.378920        -0.613716
 H        -0.975460        -1.906964         1.082326
 H        -0.039447        -1.741465        -0.443590
 H        -0.456283        -0.037650        -1.973748
 H        -2.092229         0.890595        -3.017588
