19
Iteration:  1441
 C        -0.069415         2.495151        -0.061515
 C        -0.700020         1.181122        -0.110301
 C        -2.050651         0.753278         0.618938
 C        -1.906161        -0.481129        -0.386408
 C        -0.655875        -1.155697         0.190931
 C         0.141653         0.055791         0.504310
 O         1.026433         0.229242         1.320516
 C        -1.318828         0.549387        -1.392140
 O        -2.441909         1.253344        -1.950552
 H         0.799198         2.584643        -0.610847
 H        -0.788537         3.234874        -0.326962
 H         0.211183         2.849139         0.977249
 H        -2.098877         0.524674         1.679370
 H        -2.864579         1.428014         0.371006
 H        -2.754020        -1.126252        -0.735172
 H        -0.774361        -1.785141         1.137633
 H        -0.221599        -1.938528        -0.547216
 H        -0.580337         0.135188        -2.063056
 H        -2.059091         1.612858        -2.828338
