19
Iteration:  2328
 C        -0.212379         2.627815        -0.199327
 C        -0.700519         1.172313        -0.072028
 C        -2.202216         0.698549         0.530405
 C        -1.864567        -0.545813        -0.478139
 C        -0.712145        -1.230861         0.377113
 C         0.038893         0.110901         0.685700
 O         0.760281         0.284343         1.637473
 C        -1.134706         0.460814        -1.397697
 O        -1.982823         1.305428        -2.267716
 H        -0.959821         3.226364         0.372119
 H         0.775969         2.561023         0.244973
 H        -0.145365         2.879018        -1.294299
 H        -2.313656         0.498145         1.497768
 H        -3.009915         1.416717         0.277193
 H        -2.754472        -1.129479        -0.894557
 H        -1.050130        -1.681749         1.337013
 H        -0.090414        -1.952708        -0.251456
 H        -0.312720         0.107420        -2.062989
 H        -1.612041         1.134788        -3.148451
