19
Iteration:   137
 C        -0.243895         2.588342        -0.052050
 C        -0.710508         1.166976         0.020285
 C        -1.705469         0.662569         1.021299
 C        -1.998519        -0.450088        -0.055580
 C        -0.650905        -1.218733        -0.017702
 C         0.270023        -0.009821         0.094143
 O         1.500464        -0.051358         0.164118
 C        -1.682574         0.671862        -1.065771
 O        -2.690878         1.569671        -1.380113
 H        -1.039481         3.348748         0.180166
 H         0.582630         2.579987         0.751539
 H         0.305545         2.698321        -1.015901
 H        -1.444743         0.370629         2.092402
 H        -2.535349         1.420243         1.046676
 H        -2.984354        -1.000297        -0.111467
 H        -0.514669        -1.951722         0.822017
 H        -0.519843        -1.871363        -0.896453
 H        -1.174864         0.251236        -2.019725
 H        -3.441408         0.949234        -1.415414
