19
Iteration:  2197
 C        -0.340858         2.704515         0.106834
 C        -0.890347         1.259675         0.162333
 C        -2.374071         0.824152         0.351265
 C        -1.964653        -0.495563        -0.426817
 C        -0.870560        -1.141265         0.401049
 C         0.002867         0.172997         0.791287
 O         1.206038         0.163776         1.057423
 C        -1.082176         0.314646        -1.279490
 O        -1.828783         1.098324        -2.227153
 H        -0.151912         2.988224        -0.922106
 H        -1.141444         3.343567         0.515889
 H         0.608029         2.842175         0.691501
 H        -2.849934         0.708602         1.356877
 H        -2.980573         1.436904        -0.387777
 H        -2.811388        -1.059017        -0.952892
 H        -1.333047        -1.644834         1.247487
 H        -0.242233        -1.876176        -0.057111
 H        -0.197693        -0.011044        -1.779692
 H        -1.168700         1.416121        -2.941177
