19
Iteration:  1397charge 0 multiplicity 1
 C        -0.282911         2.585918         0.020612
 C        -0.756379         1.208527         0.097846
 C        -2.237511         0.734140         0.660658
 C        -2.013618        -0.492981        -0.265327
 C        -0.785912        -1.199837         0.294699
 C         0.160776         0.060759         0.461508
 O         1.258706         0.187462         0.924559
 C        -1.278212         0.460282        -1.273867
 O        -2.115917         1.257382        -2.135216
 H         0.734183         2.597525         0.244266
 H        -0.498841         3.105275        -0.912477
 H        -0.770092         3.230075         0.825131
 H        -2.390680         0.710473         1.740551
 H        -2.890401         1.530170         0.309800
 H        -2.843341        -1.169961        -0.583127
 H        -0.993810        -1.717173         1.288660
 H        -0.172114        -1.959554        -0.348425
 H        -0.574544         0.063240        -1.972897
 H        -2.032517         2.218182        -1.856097
