19
Iteration:  3664
 C        -0.307399         2.674910         0.072684
 C        -0.810370         1.228820        -0.056770
 C        -2.227684         0.744628         0.255897
 C        -1.894331        -0.583093        -0.528518
 C        -0.903512        -1.135214         0.564261
 C        -0.082679         0.157191         0.804223
 O         0.837904         0.268342         1.523118
 C        -0.993500         0.405709        -1.378537
 O        -1.700533         1.146500        -2.413587
 H         0.779363         2.693536         0.305706
 H        -0.383659         3.208490        -0.866579
 H        -0.877292         3.268841         0.947567
 H        -2.765954         0.620527         1.219866
 H        -3.012157         1.213054        -0.406711
 H        -2.702787        -1.143070        -1.052796
 H        -1.429158        -1.436960         1.485723
 H        -0.278125        -1.952183         0.192407
 H        -0.037255         0.046006        -1.761989
 H        -1.332794         0.943934        -3.277664
