19
Iteration:   354
 C         0.164031         2.448629        -0.323333
 C        -0.722100         1.200438        -0.162453
 C        -1.758945         0.657770         1.025161
 C        -1.984001        -0.463720        -0.075784
 C        -0.581677        -1.206816        -0.075779
 C         0.213802         0.092061         0.126618
 O         1.289963         0.109466         0.678160
 C        -1.689551         0.607414        -1.177637
 O        -2.888634         1.395581        -1.351787
 H        -0.033614         3.251029         0.374213
 H         1.205884         2.105751        -0.249838
 H         0.123129         2.808694        -1.357280
 H        -1.322474         0.291843         1.979136
 H        -2.514141         1.448437         1.141643
 H        -3.044106        -0.901966        -0.188158
 H        -0.432664        -2.059568         0.565292
 H        -0.331922        -1.586586        -1.093513
 H        -1.386202         0.262084        -2.159526
 H        -2.880402         2.283507        -0.944349
