19
Iteration:  4825charge 0 multiplicity 1
 C        -0.296617         2.666234        -0.170975
 C        -0.703659         1.169728        -0.073773
 C        -2.159345         0.778700         0.406564
 C        -1.872806        -0.517552        -0.414522
 C        -0.829128        -1.253698         0.300182
 C        -0.015633         0.171584         0.803721
 O         0.626364         0.268509         1.809767
 C        -1.061158         0.432935        -1.404649
 O        -1.753606         1.120493        -2.454202
 H         0.426764         2.828389         0.687364
 H         0.309501         2.745494        -1.152764
 H        -1.236587         3.424194        -0.209629
 H        -2.455018         0.769294         1.572990
 H        -2.903136         1.453734        -0.198870
 H        -2.723756        -1.077495        -0.787561
 H        -1.289574        -1.809477         1.124086
 H         0.011004        -1.762861        -0.217428
 H        -0.132785        -0.003889        -1.783625
 H        -1.195915         1.841430        -2.738203
