19
Iteration:  1116
 C        -0.164399         2.581874         0.065851
 C        -0.802442         1.187516        -0.010968
 C        -2.108760         0.807649         0.717754
 C        -2.048339        -0.493059        -0.229636
 C        -0.777195        -1.089611         0.400273
 C         0.162251         0.118708         0.386708
 O         1.351843         0.108819         0.757019
 C        -1.397401         0.415706        -1.261970
 O        -2.233460         1.275741        -2.060469
 H         0.320328         2.800036        -0.830061
 H        -0.819779         3.418060         0.216762
 H         0.615365         2.544793         0.887396
 H        -2.013406         0.544760         1.737800
 H        -2.939081         1.478259         0.615751
 H        -2.974968        -1.035395        -0.623480
 H        -0.800430        -1.519337         1.420959
 H        -0.319544        -1.922333        -0.362137
 H        -0.641414        -0.028045        -1.955264
 H        -3.156753         1.235100        -1.755961
