19
Iteration:     4charge 0 multiplicity 1
 C        -0.104555         2.547459         0.041740
 C        -0.693634         1.186593         0.027503
 C        -1.718552         0.619893         1.078224
 C        -2.014306        -0.481728        -0.004986
 C        -0.649548        -1.219330        -0.011225
 C         0.265543        -0.028345        -0.003151
 O         1.497388        -0.002091        -0.002431
 C        -1.718095         0.667823        -1.043601
 O        -2.758133         1.536584        -1.381527
 H         0.346161         2.788077         1.028296
 H         0.563002         2.729341        -0.767600
 H        -0.902748         3.335173        -0.073501
 H        -1.337189         0.213995         2.058989
 H        -2.544290         1.359058         1.220455
 H        -2.995574        -0.991337        -0.129199
 H        -0.504352        -1.825284         0.808599
 H        -0.610449        -1.776315        -0.990331
 H        -1.351531         0.384119        -2.084636
 H        -3.370129         1.736292        -0.637898
