19
Iteration:  4190
 C        -0.350519         2.649145         0.063491
 C        -0.922950         1.239923         0.038127
 C        -2.463960         0.806040         0.205237
 C        -1.931622        -0.503620        -0.534416
 C        -0.969044        -1.128659         0.545740
 C        -0.098161         0.151786         0.806754
 O         0.966972         0.253984         1.358662
 C        -0.930332         0.400102        -1.239960
 O        -1.511926         1.056720        -2.384213
 H         0.560359         2.727908        -0.595747
 H        -1.141970         3.244069        -0.460450
 H        -0.054118         3.046684         1.147234
 H        -2.789197         0.780508         1.209055
 H        -3.090328         1.408023        -0.326620
 H        -2.603264        -1.248141        -0.972540
 H        -1.591487        -1.554755         1.349712
 H        -0.307258        -1.968745         0.177426
 H        -0.049181        -0.166340        -1.621465
 H        -0.688101         1.395020        -2.784941
