19
Iteration:  2181charge 0 multiplicity 1
 C        -0.435648         2.690878         0.106289
 C        -0.852225         1.248609         0.109213
 C        -2.326793         0.735524         0.387511
 C        -1.975308        -0.473550        -0.424076
 C        -0.919546        -1.072364         0.568268
 C        -0.079229         0.166233         0.675071
 O         1.105515         0.102659         0.944764
 C        -0.997037         0.444149        -1.297453
 O        -1.721180         1.134406        -2.186324
 H        -0.090556         2.979161        -0.929357
 H        -1.249152         3.444014         0.350145
 H         0.473719         2.715085         0.739454
 H        -2.459653         0.463355         1.423277
 H        -3.089760         1.350509        -0.023464
 H        -2.568767        -1.306117        -0.777949
 H        -1.132962        -1.525394         1.583148
 H        -0.175856        -1.777247         0.003867
 H        -0.112841        -0.165351        -1.616086
 H        -1.189129         1.168442        -3.060657
