19
Iteration:  1350charge 0 multiplicity 1
 C        -0.419672         2.770736         0.225532
 C        -0.883333         1.228344         0.173791
 C        -2.230538         0.749807         0.711532
 C        -2.027465        -0.531532        -0.314951
 C        -0.839508        -1.143161         0.585596
 C         0.107804         0.104845         0.549592
 O         1.332284         0.016686         0.457165
 C        -1.198198         0.400161        -1.280771
 O        -1.861925         1.259762        -2.222724
 H         0.395836         2.984642         1.021846
 H        -0.143625         3.089416        -0.797580
 H        -1.258561         3.391669         0.428254
 H        -2.651202         0.717899         1.724461
 H        -2.962992         1.449914         0.270653
 H        -2.832123        -1.094857        -0.713933
 H        -1.084501        -1.291365         1.679689
 H        -0.360481        -2.147688         0.139844
 H        -0.310997         0.273151        -1.981456
 H        -2.882354         1.258445        -2.023637
