19
Iteration:  1460charge 0 multiplicity 1
 C        -0.029322         2.700194        -0.117125
 C        -0.633875         1.172383        -0.085919
 C        -2.024300         0.779778         0.549384
 C        -1.868769        -0.520480        -0.413582
 C        -0.670322        -1.266010         0.113484
 C         0.137379         0.079770         0.564103
 O         0.977778         0.181528         1.432803
 C        -1.330158         0.536996        -1.388885
 O        -2.489215         1.240275        -1.886394
 H         0.516611         2.694903        -1.116763
 H        -0.744021         3.554262        -0.006767
 H         0.712701         2.792908         0.717364
 H        -2.079884         0.556894         1.631394
 H        -2.843509         1.338317         0.128674
 H        -2.808679        -0.982218        -0.642451
 H        -0.863324        -2.009049         0.913152
 H        -0.120494        -1.891447        -0.673918
 H        -0.534483         0.151658        -2.151710
 H        -2.510134         1.268421        -2.849778
