19
Iteration:  1107charge 0 multiplicity 1
 C        -0.243284         2.550562         0.079675
 C        -0.790516         1.239130         0.004983
 C        -2.106957         0.806609         0.777440
 C        -2.070390        -0.475116        -0.198719
 C        -0.770159        -1.056630         0.380441
 C         0.140348         0.112581         0.404083
 O         1.320990         0.056676         0.631009
 C        -1.371247         0.471757        -1.240468
 O        -2.138739         1.249419        -2.052852
 H         0.381876         2.699728        -0.848614
 H        -1.071093         3.270640         0.089923
 H         0.341030         2.686303         1.032190
 H        -2.012320         0.634760         1.851502
 H        -2.901916         1.559976         0.581881
 H        -2.794356        -1.208900        -0.572530
 H        -0.981112        -1.357142         1.453417
 H        -0.184883        -1.985058        -0.164240
 H        -0.536939        -0.046301        -1.837688
 H        -3.079119         1.076148        -2.016189
