19
Iteration:  3121charge 0 multiplicity 1
 C        -0.289994         2.678970        -0.064759
 C        -0.777718         1.188497        -0.060411
 C        -2.241455         0.740499         0.200392
 C        -1.934884        -0.504297        -0.469746
 C        -0.818239        -1.138802         0.378019
 C        -0.078346         0.119137         0.830370
 O         0.727208         0.317728         1.767086
 C        -0.942594         0.355921        -1.382808
 O        -1.718398         1.056641        -2.406262
 H         0.280366         2.842942        -1.002522
 H        -1.168737         3.306220        -0.205610
 H         0.367655         3.026316         0.862117
 H        -2.552315         0.753034         1.261308
 H        -2.897617         1.284100        -0.565362
 H        -2.811431        -1.036927        -0.970929
 H        -1.020130        -1.866184         1.157143
 H        -0.068503        -1.565000        -0.281069
 H        -0.033536        -0.049459        -1.718172
 H        -1.718369         2.041466        -2.139419
