19
Iteration:  1112
 C        -0.196723         2.556092         0.082701
 C        -0.798077         1.219064        -0.010292
 C        -2.103268         0.816376         0.743300
 C        -2.070645        -0.501726        -0.215942
 C        -0.764485        -1.071694         0.387168
 C         0.152093         0.118440         0.385485
 O         1.340927         0.080958         0.700653
 C        -1.381370         0.437046        -1.255322
 O        -2.187831         1.261304        -2.050339
 H         0.316463         2.724223        -0.895335
 H        -0.953792         3.366796         0.159333
 H         0.437106         2.592384         0.952379
 H        -2.000239         0.564271         1.837766
 H        -2.933106         1.526284         0.620544
 H        -2.881588        -1.099711        -0.678228
 H        -0.881839        -1.406236         1.401947
 H        -0.328350        -1.774470        -0.165856
 H        -0.593592        -0.029149        -1.816089
 H        -3.149709         1.188879        -1.915698
