19
Iteration:  2302charge 0 multiplicity 1
 C        -0.137851         2.685995        -0.240236
 C        -0.715902         1.211785        -0.058934
 C        -2.203435         0.732394         0.398627
 C        -1.910368        -0.580219        -0.461412
 C        -0.671569        -1.166597         0.233226
 C        -0.055130         0.207571         0.807395
 O         0.802595         0.221497         1.672162
 C        -1.144448         0.377923        -1.423417
 O        -2.023320         1.197048        -2.125159
 H        -0.906039         3.402127        -0.039482
 H         0.700344         2.666388         0.505920
 H         0.270114         2.685149        -1.245408
 H        -2.446465         0.601790         1.528045
 H        -2.978308         1.373551         0.022792
 H        -2.785951        -1.117888        -0.740788
 H        -0.864060        -1.931872         1.042856
 H         0.066625        -1.575558        -0.537602
 H        -0.411190        -0.105889        -2.189176
 H        -1.537984         1.692787        -2.810007
