19
Iteration:  1174
 C         0.026600         2.600917        -0.283481
 C        -0.679676         1.182880        -0.186266
 C        -1.978752         0.715067         0.756836
 C        -1.910751        -0.473600        -0.258219
 C        -0.655215        -1.131346         0.055279
 C         0.145162         0.103399         0.465136
 O         1.035475         0.140991         1.327151
 C        -1.453590         0.482644        -1.351636
 O        -2.505556         1.237054        -1.804004
 H        -0.364586         3.239813        -1.181285
 H        -0.212680         3.167035         0.645430
 H         1.094221         2.638839        -0.421613
 H        -1.757248         0.444875         1.810402
 H        -2.940930         1.264483         0.595217
 H        -2.791165        -1.037711        -0.384924
 H        -0.725606        -1.774273         1.017488
 H        -0.191277        -1.872080        -0.815993
 H        -0.855737         0.159505        -2.284168
 H        -2.151674         1.970587        -2.378364
