19
Iteration:   958
 C        -0.028207         2.577747        -0.169413
 C        -0.676077         1.214481        -0.064425
 C        -1.847605         0.795637         0.800043
 C        -2.009016        -0.473226        -0.178419
 C        -0.695197        -1.222854         0.131644
 C         0.222178        -0.008582         0.407617
 O         1.241471         0.150567         1.070964
 C        -1.544513         0.507236        -1.330090
 O        -2.584066         1.326667        -1.978124
 H        -0.617972         3.437709         0.284630
 H         0.954453         2.508313         0.335058
 H         0.147031         2.776940        -1.163812
 H        -1.571018         0.708554         1.881172
 H        -2.655469         1.577671         0.703108
 H        -2.967090        -1.036735        -0.113402
 H        -0.632222        -1.876339         1.046926
 H        -0.313825        -1.802319        -0.675057
 H        -0.960082         0.080772        -2.176363
 H        -3.443614         1.318793        -1.447826
