19
Iteration:  2122
 C        -0.424239         2.650612         0.130159
 C        -0.905748         1.255785         0.028584
 C        -2.312177         0.817623         0.399935
 C        -1.984546        -0.455599        -0.382413
 C        -0.861747        -1.122506         0.442091
 C        -0.012035         0.133605         0.622817
 O         1.122651         0.175027         1.047610
 C        -1.082994         0.344229        -1.266234
 O        -1.673448         1.161487        -2.187031
 H         0.201518         3.007185        -0.652954
 H        -1.146371         3.367467         0.383020
 H         0.180025         2.569693         1.001935
 H        -2.561819         0.926416         1.543192
 H        -3.179829         1.262267        -0.207432
 H        -2.683646        -1.214660        -0.779726
 H        -1.067554        -1.420840         1.444365
 H        -0.236926        -1.816607        -0.016774
 H        -0.333501        -0.235308        -1.839936
 H        -1.823953         0.701304        -3.018591
