19
Iteration:   148
 C        -0.186948         2.586576         0.026560
 C        -0.689343         1.214478         0.000305
 C        -1.822867         0.701255         1.038078
 C        -1.938216        -0.421428         0.001870
 C        -0.697414        -1.243680         0.051762
 C         0.303899        -0.034730         0.052586
 O         1.486160        -0.065801         0.072459
 C        -1.593059         0.635020        -1.084198
 O        -2.732500         1.515446        -1.402986
 H        -0.967280         3.180399         0.569777
 H         0.717123         2.652470         0.748739
 H        -0.004238         3.201665        -0.875174
 H        -1.465331         0.454800         2.098482
 H        -2.757249         1.318187         1.009950
 H        -2.905323        -0.999186         0.007674
 H        -0.712387        -1.943476         0.931280
 H        -0.450099        -1.692629        -0.920017
 H        -1.045211         0.317018        -2.056140
 H        -3.455359         1.081361        -1.958861
