19
Iteration:   975
 C         0.070417         2.632770        -0.059338
 C        -0.658496         1.206901        -0.133142
 C        -2.058701         0.763977         0.797485
 C        -2.028450        -0.435668        -0.114853
 C        -0.714675        -1.177045         0.255831
 C         0.177750         0.073686         0.399746
 O         1.297660         0.122908         0.876804
 C        -1.514790         0.512958        -1.281784
 O        -2.503543         1.199742        -1.998856
 H        -0.370221         3.207676         0.765816
 H         1.105364         2.564656         0.333982
 H        -0.149526         3.222428        -1.056583
 H        -1.948527         0.472587         1.854227
 H        -2.866071         1.454434         0.580098
 H        -2.900382        -1.017429        -0.374571
 H        -0.831978        -1.920560         1.020633
 H        -0.387357        -1.724836        -0.725455
 H        -0.960488         0.054359        -2.136817
 H        -3.151064         1.603836        -1.357298
