19
Iteration:  2071
 C        -0.214429         2.518041        -0.000619
 C        -0.827153         1.195842        -0.053477
 C        -2.212833         0.714901         0.430410
 C        -1.934099        -0.508532        -0.471158
 C        -0.753902        -1.119865         0.356893
 C         0.091124         0.203652         0.679918
 O         0.997407         0.220171         1.539046
 C        -1.123745         0.456578        -1.460760
 O        -2.041673         1.249808        -2.274009
 H         0.887586         2.386818        -0.440367
 H        -0.757852         3.366177        -0.555322
 H        -0.081550         2.798410         1.107368
 H        -2.112089         0.591696         1.460837
 H        -3.080937         1.317362         0.204019
 H        -2.715842        -1.223057        -0.748324
 H        -1.120255        -1.511361         1.381726
 H        -0.174372        -1.894322        -0.292626
 H        -0.201511         0.317960        -2.048297
 H        -2.712539         0.822611        -2.748640
