19
Iteration:  1606
 C        -0.344610         2.699731         0.381326
 C        -0.877104         1.271266         0.073664
 C        -2.305342         0.765148         0.503032
 C        -1.976296        -0.463761        -0.304191
 C        -0.891984        -1.064603         0.518162
 C         0.033895         0.126861         0.558063
 O         1.255790         0.123155         0.629432
 C        -1.090732         0.392667        -1.274234
 O        -1.926053         1.111533        -2.185161
 H        -0.518181         2.932166         1.379708
 H         0.689963         2.584550         0.107086
 H        -0.904332         3.380053        -0.265742
 H        -2.506817         0.738759         1.527962
 H        -3.120754         1.305103        -0.010723
 H        -2.740231        -1.161987        -0.731418
 H        -1.195979        -1.421510         1.530615
 H        -0.439499        -2.018427         0.075627
 H        -0.221429        -0.090429        -1.862918
 H        -1.363181         1.280922        -3.015107
