19
Iteration:  3963charge 0 multiplicity 1
 C        -0.132887         2.611767         0.063987
 C        -0.781489         1.186079        -0.081925
 C        -2.376587         0.832408         0.154686
 C        -1.852105        -0.617720        -0.530040
 C        -0.812398        -1.202057         0.471316
 C        -0.105152         0.145611         0.818362
 O         0.727149         0.358139         1.677727
 C        -1.021614         0.406909        -1.413350
 O        -1.781057         1.111710        -2.366387
 H         0.873058         2.526803        -0.246576
 H        -0.574545         3.350122        -0.617026
 H        -0.140182         3.070862         0.998064
 H        -2.674660         0.675389         1.291120
 H        -2.997585         1.506101        -0.495687
 H        -2.697940        -1.167395        -0.890353
 H        -1.075516        -1.551988         1.447981
 H        -0.115094        -1.898947         0.006589
 H        -0.127941         0.031426        -1.962425
 H        -1.108535         1.595194        -2.968116
