19
Iteration:  2881charge 0 multiplicity 1
 C        -0.213451         2.551511         0.030078
 C        -0.748126         1.194169        -0.082724
 C        -2.186814         0.805688         0.215266
 C        -1.804898        -0.569191        -0.504774
 C        -0.737767        -1.131404         0.415515
 C        -0.124932         0.206551         0.776255
 O         0.639106         0.316580         1.715956
 C        -1.017058         0.340480        -1.434311
 O        -1.775288         1.146710        -2.410633
 H         0.570064         2.666199         0.734622
 H         0.058714         2.826114        -0.937072
 H        -0.997391         3.312692         0.178699
 H        -2.316719         0.891507         1.286889
 H        -3.010263         1.429746        -0.193357
 H        -2.614710        -1.353859        -0.839455
 H        -1.146821        -1.682781         1.295218
 H        -0.194873        -1.854408        -0.206066
 H        -0.103112        -0.066845        -1.892074
 H        -2.547218         1.658582        -1.961216
