19
Iteration:    48charge 0 multiplicity 1
 C         0.016161         2.588059        -0.117296
 C        -0.616770         1.206007        -0.136971
 C        -1.613568         0.678350         0.973202
 C        -1.995375        -0.455153        -0.101139
 C        -0.648035        -1.251667        -0.180037
 C         0.283100        -0.018220         0.000885
 O         1.447531        -0.043293         0.443146
 C        -1.795775         0.682065        -1.090046
 O        -2.995425         1.459881        -1.097616
 H         1.115868         2.533592        -0.379258
 H        -0.503829         3.260473        -0.782715
 H        -0.006915         3.104433         0.904350
 H        -1.052567         0.304353         1.887009
 H        -2.410764         1.439465         1.191772
 H        -2.948240        -1.036787        -0.219419
 H        -0.385788        -2.022981         0.465132
 H        -0.488115        -1.499940        -1.282740
 H        -1.387098         0.456729        -2.126858
 H        -3.214173         1.651929        -2.034405
