19
Iteration:    46
 C         0.021000         2.597259        -0.108229
 C        -0.620997         1.204471        -0.111327
 C        -1.601469         0.680567         0.968826
 C        -1.979358        -0.442746        -0.100266
 C        -0.655485        -1.241308        -0.179873
 C         0.273660        -0.027268         0.009701
 O         1.454557        -0.044861         0.430946
 C        -1.809645         0.675098        -1.107089
 O        -2.990218         1.463247        -1.107097
 H         1.101254         2.520104        -0.354747
 H        -0.461797         3.198368        -0.812551
 H        -0.109596         3.092764         0.891824
 H        -1.093268         0.321811         1.892519
 H        -2.402861         1.399592         1.205298
 H        -2.905420        -1.000067        -0.233791
 H        -0.374733        -2.016027         0.439092
 H        -0.496059        -1.578802        -1.247391
 H        -1.407408         0.448334        -2.090131
 H        -3.301710         1.578479        -1.998920
