19
Iteration:  4624
 C        -0.281521         2.557761         0.022342
 C        -0.780739         1.187351        -0.034403
 C        -2.282111         0.788612         0.156654
 C        -1.904066        -0.549919        -0.552876
 C        -0.894587        -1.128825         0.512693
 C        -0.140885         0.179426         0.819008
 O         0.816175         0.358226         1.584650
 C        -0.961126         0.342342        -1.402562
 O        -1.709879         1.127105        -2.251635
 H         0.743688         2.703381        -0.432535
 H        -0.914599         3.211924        -0.609607
 H        -0.131893         2.908356         1.013020
 H        -2.714556         0.790979         1.098349
 H        -2.717846         1.417273        -0.515330
 H        -2.644916        -1.169293        -1.109554
 H        -1.476430        -1.594294         1.267012
 H        -0.139797        -1.732195         0.131647
 H        -0.089008         0.023853        -1.958494
 H        -1.156594         1.167990        -3.115653
