19
Iteration:  3389
 C        -0.362145         2.674604         0.074575
 C        -0.895920         1.232456        -0.059947
 C        -2.296641         0.775103         0.289255
 C        -1.879425        -0.524234        -0.459595
 C        -0.817240        -1.181752         0.372421
 C        -0.097998         0.173545         0.824806
 O         0.822343         0.316595         1.682708
 C        -0.949351         0.375104        -1.442659
 O        -1.615394         1.030535        -2.503417
 H         0.709759         2.611647        -0.163107
 H        -0.880177         3.317688        -0.680205
 H        -0.524024         3.077405         1.053977
 H        -2.620431         0.764922         1.336005
 H        -2.977280         1.426240        -0.252271
 H        -2.652053        -1.186381        -0.905202
 H        -1.199043        -1.860260         1.117597
 H        -0.241844        -1.805589        -0.306750
 H         0.094610        -0.051304        -1.744811
 H        -1.909458         1.862808        -2.175718
