19
Iteration:  1678
 C        -0.260263         2.706031        -0.035533
 C        -0.754131         1.252771         0.075192
 C        -2.257754         0.724192         0.545785
 C        -1.929410        -0.513755        -0.332516
 C        -0.817434        -1.182501         0.342760
 C         0.035302         0.060382         0.609832
 O         1.176940         0.157437         1.112660
 C        -1.237663         0.411052        -1.364636
 O        -2.004190         1.216684        -2.178495
 H         0.849013         2.827994         0.308609
 H        -0.362667         2.975586        -1.101971
 H        -0.972732         3.361545         0.612081
 H        -2.256661         0.603508         1.724341
 H        -3.131604         1.338586         0.200892
 H        -2.770594        -1.125192        -0.646189
 H        -1.147027        -1.631491         1.286142
 H        -0.240145        -1.940216        -0.126509
 H        -0.568313        -0.077631        -2.124556
 H        -1.978295         2.190320        -1.846379
