19
Iteration:  4977
 C        -0.470333         2.738454         0.094889
 C        -0.928059         1.254560         0.123820
 C        -2.329207         0.816079         0.190004
 C        -1.910006        -0.501636        -0.443262
 C        -1.067025        -1.114077         0.589919
 C        -0.055124         0.155842         0.768195
 O         1.069241         0.153170         1.154295
 C        -0.906741         0.322164        -1.309366
 O        -1.545860         1.098968        -2.285153
 H        -1.333161         3.338759         0.196633
 H         0.294060         2.867617         0.792698
 H        -0.108107         2.877501        -0.876648
 H        -2.848216         0.606229         1.169600
 H        -3.005291         1.391638        -0.427505
 H        -2.770430        -1.236658        -0.865477
 H        -1.617067        -1.293477         1.480201
 H        -0.565148        -2.050138         0.292499
 H         0.069516        -0.255421        -1.603878
 H        -0.956521         1.672545        -2.904762
