19
Iteration:  1810charge 0 multiplicity 1
 C        -0.246583         2.613610        -0.020824
 C        -0.750004         1.210270        -0.048243
 C        -2.154016         0.827744         0.476622
 C        -1.899879        -0.493041        -0.370040
 C        -0.765117        -1.188533         0.402673
 C         0.035068         0.035196         0.539115
 O         1.017803         0.179133         1.276671
 C        -1.161456         0.511966        -1.386678
 O        -2.084887         1.215365        -2.078055
 H        -1.097830         3.127114        -0.451726
 H        -0.102365         2.846712         1.041538
 H         0.610607         2.646218        -0.741062
 H        -2.256413         0.746097         1.655336
 H        -2.995648         1.507571         0.115115
 H        -2.773358        -1.064265        -0.690349
 H        -1.152150        -1.588062         1.332968
 H        -0.240633        -1.949870        -0.209894
 H        -0.254054         0.147804        -1.944451
 H        -1.839150         1.076711        -3.060451
