19
Iteration:  2310charge 0 multiplicity 1
 C        -0.114612         2.702498        -0.227381
 C        -0.730242         1.224222        -0.127254
 C        -2.180263         0.616215         0.385624
 C        -1.943463        -0.550375        -0.363590
 C        -0.729185        -1.160493         0.222514
 C        -0.031352         0.150451         0.797911
 O         0.804102         0.242665         1.687265
 C        -1.160900         0.428319        -1.428803
 O        -1.986222         1.227761        -2.143440
 H        -0.900207         3.455220        -0.008881
 H         0.794341         2.907871         0.345054
 H         0.148022         2.930435        -1.253565
 H        -2.249265         0.461293         1.621099
 H        -3.033568         1.206144        -0.002716
 H        -2.581350        -1.342995        -0.821853
 H        -1.047014        -1.815932         0.999479
 H        -0.011000        -1.606794        -0.395346
 H        -0.469934        -0.155243        -2.013810
 H        -1.544289         1.518364        -2.926827
