19
Iteration:  4769
 C        -0.241846         2.655948         0.107216
 C        -0.851085         1.206808         0.037941
 C        -2.330338         0.760493         0.121499
 C        -1.874965        -0.492022        -0.539059
 C        -0.976518        -1.161407         0.539856
 C        -0.121867         0.093386         0.842851
 O         0.901616         0.340335         1.490984
 C        -0.931491         0.426281        -1.363077
 O        -1.708452         1.019609        -2.408255
 H         0.792502         2.645772         0.568292
 H        -0.091150         3.092754        -0.947110
 H        -0.833538         3.528548         0.618885
 H        -2.673482         0.553886         1.234499
 H        -3.136622         1.467635        -0.348057
 H        -2.577130        -1.171713        -1.120369
 H        -1.514734        -1.369405         1.453640
 H        -0.390031        -2.074905         0.334174
 H         0.019480         0.111053        -1.765433
 H        -1.226220         1.591252        -2.984210
