19
Iteration:  2923charge 0 multiplicity 1
 C        -0.183462         2.590846        -0.009341
 C        -0.842776         1.229186         0.009497
 C        -2.277196         0.687994         0.375845
 C        -1.889876        -0.546799        -0.552700
 C        -0.875638        -1.079422         0.311888
 C        -0.089202         0.211552         0.833872
 O         0.764777         0.372154         1.667193
 C        -1.016344         0.373705        -1.413700
 O        -1.637019         1.084107        -2.460323
 H         0.683490         2.521751         0.639493
 H         0.037706         2.782834        -1.048690
 H        -0.850185         3.442182         0.221812
 H        -2.535132         0.377925         1.450665
 H        -3.241638         1.292601         0.176154
 H        -2.527589        -1.237560        -1.205866
 H        -1.180677        -1.630480         1.200601
 H        -0.101446        -1.746980        -0.040064
 H        -0.185568        -0.067969        -1.882342
 H        -2.522179         1.378901        -2.151687
