19
Iteration:  4490
 C        -0.247089         2.618062        -0.016731
 C        -0.830137         1.232926        -0.006937
 C        -2.289943         0.750876         0.215720
 C        -1.879210        -0.557901        -0.503404
 C        -1.014489        -1.184088         0.522836
 C        -0.145717         0.149896         0.775215
 O         0.864800         0.329924         1.498844
 C        -0.877805         0.424627        -1.364806
 O        -1.692146         1.137510        -2.287634
 H         0.701020         2.757819         0.506384
 H        -0.276200         2.900966        -1.083557
 H        -0.951467         3.248522         0.624676
 H        -2.719089         0.564090         1.163684
 H        -2.943558         1.259747        -0.568648
 H        -2.733731        -1.052280        -1.007125
 H        -1.533137        -1.615634         1.414108
 H        -0.273982        -1.961068         0.322378
 H         0.007552        -0.049630        -1.822898
 H        -1.103734         1.272558        -3.050661
