19
Iteration:  3067
 C        -0.344941         2.690384         0.151865
 C        -0.811093         1.215707        -0.052418
 C        -2.391624         0.773210         0.265595
 C        -1.929192        -0.556890        -0.455533
 C        -0.985535        -1.184232         0.556833
 C        -0.147774         0.164589         0.779608
 O         0.913671         0.363525         1.355532
 C        -0.977111         0.399018        -1.315361
 O        -1.400523         1.016425        -2.494833
 H         0.408365         2.916963        -0.588693
 H        -1.227053         3.265005         0.046712
 H         0.039363         3.014035         1.182567
 H        -2.923783         0.588631         1.264462
 H        -2.989198         1.550308        -0.416767
 H        -2.632392        -1.345691        -0.908733
 H        -1.536466        -1.485271         1.456905
 H        -0.407481        -2.047150         0.248713
 H        -0.061267        -0.038689        -1.614685
 H        -2.292040         1.492617        -2.286801
