19
Iteration:  1135charge 0 multiplicity 1
 C        -0.017147         2.586360        -0.019164
 C        -0.666451         1.227239        -0.051533
 C        -2.077388         0.772445         0.677025
 C        -1.986336        -0.486325        -0.181189
 C        -0.731546        -1.264203         0.276464
 C         0.139387         0.010892         0.527711
 O         1.288309         0.231619         0.934266
 C        -1.447238         0.522404        -1.394012
 O        -2.421671         1.255429        -2.049711
 H         0.114439         2.934710        -1.022526
 H        -0.725775         3.273293         0.456328
 H         0.869488         2.549624         0.623012
 H        -2.211971         0.721650         1.777808
 H        -2.876778         1.405712         0.312945
 H        -2.845154        -1.201729        -0.366968
 H        -1.089188        -1.718540         1.158280
 H        -0.304584        -1.940646        -0.336304
 H        -0.790348         0.052140        -2.069527
 H        -3.039249         1.719071        -1.392565
