19
Iteration:  2175charge 0 multiplicity 1
 C        -0.440290         2.689218         0.109791
 C        -0.889078         1.242384         0.031224
 C        -2.337922         0.767567         0.452699
 C        -1.939359        -0.497988        -0.408054
 C        -0.914244        -1.122934         0.580767
 C        -0.069858         0.147077         0.662143
 O         1.097004         0.103351         0.924059
 C        -0.997502         0.453491        -1.262477
 O        -1.688525         1.171124        -2.229625
 H        -0.125012         2.918942        -0.884797
 H        -1.330428         3.289514         0.348374
 H         0.440929         2.850745         0.778397
 H        -2.497883         0.460069         1.518914
 H        -3.124455         1.458324         0.044253
 H        -2.518327        -1.395584        -0.733244
 H        -1.248401        -1.376101         1.592131
 H        -0.280791        -1.932859         0.302119
 H        -0.072800         0.069590        -1.725023
 H        -1.191628         1.132879        -3.024545
