19
Iteration:  2001
 C        -0.099358         2.655431        -0.248104
 C        -0.718846         1.183510        -0.070428
 C        -2.115187         0.646654         0.559809
 C        -1.903786        -0.610176        -0.375405
 C        -0.609907        -1.178898         0.267145
 C        -0.016483         0.152059         0.712049
 O         0.806212         0.181541         1.625258
 C        -1.248573         0.466374        -1.412960
 O        -2.090558         1.395816        -2.222015
 H         0.926188         2.838417         0.061053
 H        -0.229398         2.752868        -1.293621
 H        -0.806324         3.329162         0.162537
 H        -2.256766         0.391109         1.688020
 H        -2.962851         1.247132         0.187101
 H        -2.779661        -1.240438        -0.607835
 H        -0.665872        -1.770129         1.150870
 H         0.091670        -1.635290        -0.400173
 H        -0.494786         0.066500        -2.156719
 H        -2.213389         1.024229        -3.079574
