19
Iteration:   454
 C        -0.167831         2.543810         0.018424
 C        -0.722054         1.158285         0.080151
 C        -1.938881         0.736392         1.001225
 C        -1.962845        -0.392446        -0.007114
 C        -0.726730        -1.185553         0.296069
 C         0.249249         0.026438         0.241767
 O         1.440888        -0.022317         0.098355
 C        -1.591189         0.612881        -1.094609
 O        -2.552369         1.412786        -1.741217
 H         0.241513         2.799265        -0.955172
 H        -1.000375         3.272135         0.240220
 H         0.582021         2.751459         0.721627
 H        -1.891772         0.525233         2.102547
 H        -2.859470         1.333773         0.811123
 H        -2.976873        -0.821176        -0.195852
 H        -0.653839        -1.636092         1.339399
 H        -0.434715        -1.958246        -0.367623
 H        -0.904095         0.268175        -1.866204
 H        -2.472248         1.232853        -2.666261
