19
Iteration:  4632
 C        -0.308806         2.579499         0.009351
 C        -0.824610         1.166637        -0.004595
 C        -2.298199         0.823687         0.148543
 C        -1.897649        -0.493813        -0.545510
 C        -0.880217        -1.114963         0.443351
 C        -0.133585         0.153784         0.857910
 O         0.828586         0.333552         1.543095
 C        -0.953181         0.368756        -1.361372
 O        -1.650490         1.096403        -2.270909
 H         0.569848         2.673464        -0.566348
 H        -1.107689         3.067479        -0.511089
 H        -0.150701         2.968504         0.990597
 H        -2.680230         0.761983         1.266721
 H        -2.933624         1.547200        -0.388168
 H        -2.537064        -1.209266        -0.995566
 H        -1.400472        -1.458430         1.363288
 H        -0.245256        -1.985161         0.160990
 H        -0.097093        -0.165707        -1.744091
 H        -1.189144         1.133805        -3.161530
