19
Iteration:   170charge 0 multiplicity 1
 C        -0.104343         2.684825         0.250495
 C        -0.649077         1.218565         0.125950
 C        -1.816469         0.735426         0.954101
 C        -2.070246        -0.467561        -0.041630
 C        -0.660423        -1.218321         0.162832
 C         0.290851         0.004971         0.056828
 O         1.470824        -0.045521        -0.107517
 C        -1.672196         0.578542        -1.090981
 O        -2.735610         1.391765        -1.496602
 H        -0.368188         3.241240         1.173461
 H         1.033321         2.512031         0.313965
 H        -0.408839         3.282476        -0.631979
 H        -1.622897         0.451317         2.052682
 H        -2.594848         1.533053         0.868550
 H        -3.046640        -1.021903        -0.057975
 H        -0.567890        -1.584543         1.223189
 H        -0.521153        -1.995298        -0.590891
 H        -1.188474         0.037945        -1.973118
 H        -2.776365         1.576445        -2.419166
