19
Iteration:  4912
 C        -0.244695         2.611445         0.135060
 C        -0.761728         1.253846        -0.040775
 C        -2.270598         0.788915         0.349114
 C        -1.920899        -0.476272        -0.533142
 C        -0.886002        -1.121749         0.366025
 C        -0.105347         0.161464         0.755129
 O         0.855479         0.327213         1.517381
 C        -1.014921         0.356419        -1.329625
 O        -1.754628         1.002652        -2.436570
 H        -0.997811         3.164705         0.660931
 H         0.682794         2.745614         0.620865
 H        -0.089447         3.174868        -0.776039
 H        -2.563512         0.490042         1.515519
 H        -3.097289         1.429787        -0.095309
 H        -2.734724        -1.132484        -0.892435
 H        -1.305498        -1.591303         1.208650
 H        -0.194014        -1.909440         0.113433
 H        -0.178125        -0.060815        -1.862586
 H        -1.164609         1.533475        -2.876807
