19
Iteration:   541
 C        -0.169365         2.776324         0.074971
 C        -0.679048         1.246018         0.036067
 C        -2.023455         0.744631         0.949091
 C        -2.040666        -0.455701        -0.093937
 C        -0.757133        -1.148290         0.408877
 C         0.217144        -0.017226         0.239042
 O         1.444048        -0.109740         0.138974
 C        -1.503212         0.509394        -1.224574
 O        -2.451452         1.388677        -1.719080
 H        -0.707708         3.179332         0.967684
 H         0.967684         2.895511         0.230652
 H        -0.536597         3.307974        -0.814686
 H        -1.783601         0.376463         1.897920
 H        -2.764094         1.528757         1.017610
 H        -2.928078        -1.107910        -0.281980
 H        -0.801471        -1.682120         1.415520
 H        -0.510590        -1.860128        -0.318495
 H        -0.734354         0.180558        -2.023735
 H        -3.085677         0.868230        -2.178591
