19
Iteration:  3038
 C        -0.422847         2.591140         0.188057
 C        -0.965163         1.250806         0.128541
 C        -2.465622         0.816005         0.155034
 C        -1.959023        -0.491165        -0.445150
 C        -0.942687        -1.027370         0.513742
 C        -0.116246         0.251030         0.847592
 O         1.011480         0.274662         1.245243
 C        -0.941905         0.270425        -1.342704
 O        -1.347824         1.010710        -2.430337
 H         0.529902         2.513267        -0.369470
 H        -1.064250         3.390920        -0.268259
 H        -0.221860         2.958567         1.135917
 H        -3.147090         0.662277         0.939099
 H        -2.900779         1.610408        -0.367188
 H        -2.624425        -1.253022        -0.748049
 H        -1.380917        -1.477021         1.426790
 H        -0.307877        -1.818597         0.027439
 H         0.100991        -0.087662        -1.741019
 H        -2.299061         1.017235        -2.289324
