19
Iteration:  3370charge 0 multiplicity 1
 C        -0.432631         2.591788         0.161690
 C        -0.770453         1.180160        -0.019590
 C        -2.350870         0.861083         0.241785
 C        -1.932152        -0.466165        -0.507842
 C        -0.824588        -1.112686         0.428831
 C        -0.107516         0.100283         0.782667
 O         0.876319         0.350131         1.537598
 C        -1.001478         0.395246        -1.316786
 O        -1.534029         0.971785        -2.513237
 H         0.577831         2.810481        -0.058376
 H        -1.105076         3.170364        -0.389324
 H        -0.677268         2.849124         1.206946
 H        -2.713581         0.653803         1.270690
 H        -3.089521         1.423567        -0.441126
 H        -2.723014        -1.109264        -1.121023
 H        -1.132523        -1.612394         1.407422
 H        -0.010698        -1.740870        -0.136116
 H        -0.104517        -0.065589        -1.574272
 H        -1.928453         1.881684        -2.474400
