19
Iteration:  1149
 C        -0.013714         2.525005        -0.093301
 C        -0.699579         1.149725        -0.093557
 C        -1.988643         0.834955         0.673354
 C        -1.928443        -0.497592        -0.307677
 C        -0.692839        -1.223939         0.255452
 C         0.145014         0.050582         0.495178
 O         1.185373         0.213769         1.102925
 C        -1.427791         0.527538        -1.285755
 O        -2.547579         1.235811        -2.005064
 H         0.027673         2.907823        -1.060280
 H        -0.512878         3.212751         0.564415
 H         1.062776         2.513324         0.201241
 H        -1.891220         0.776444         1.727932
 H        -2.814516         1.454163         0.369482
 H        -2.891900        -1.029148        -0.564563
 H        -0.725202        -1.894686         1.118350
 H        -0.133821        -1.811722        -0.603744
 H        -0.805385         0.251436        -2.160882
 H        -2.735646         2.039888        -1.554153
