19
Iteration:  1005
 C        -0.113907         2.549637         0.061130
 C        -0.758639         1.227095         0.058763
 C        -2.143497         0.849992         0.749895
 C        -2.009956        -0.477870        -0.145108
 C        -0.772217        -1.139784         0.476250
 C         0.140401         0.042696         0.379656
 O         1.347769         0.114607         0.523456
 C        -1.352725         0.495339        -1.261089
 O        -2.344468         1.189966        -2.016314
 H         0.009443         2.920147         1.027918
 H         0.838395         2.457111        -0.453470
 H        -0.720871         3.269878        -0.489010
 H        -2.144108         0.668574         1.805597
 H        -2.876391         1.579298         0.483704
 H        -2.957815        -1.015461        -0.405608
 H        -0.947983        -1.651316         1.454014
 H        -0.427920        -2.011999        -0.235569
 H        -0.629480         0.197486        -2.007313
 H        -2.544601         2.153493        -1.818692
