19
Iteration:  3804
 C        -0.207942         2.607740         0.081487
 C        -0.857794         1.215211         0.090315
 C        -2.360897         0.807879         0.168433
 C        -1.865047        -0.504541        -0.578745
 C        -0.825754        -1.134957         0.556128
 C        -0.132133         0.178896         0.797671
 O         0.820329         0.318780         1.545865
 C        -0.994401         0.368158        -1.402450
 O        -1.701210         1.079042        -2.377980
 H         0.314836         2.680332        -0.878482
 H        -0.895324         3.447207         0.167792
 H         0.511505         2.590909         0.811532
 H        -3.009793         0.706576         1.121923
 H        -2.890833         1.439569        -0.611895
 H        -2.504852        -1.225604        -1.081777
 H        -1.487892        -1.475149         1.394198
 H        -0.352140        -2.060221         0.195249
 H        -0.127623        -0.185218        -1.890004
 H        -1.016117         1.272540        -3.126189
