19
Iteration:  3375
 C        -0.447747         2.559843         0.108658
 C        -0.779229         1.184408        -0.002827
 C        -2.374575         0.863968         0.243788
 C        -1.948787        -0.484469        -0.516675
 C        -0.822195        -1.151922         0.424216
 C        -0.064912         0.118181         0.805498
 O         0.850757         0.343730         1.566309
 C        -0.964733         0.448258        -1.321207
 O        -1.554160         0.971626        -2.514595
 H         0.667925         2.807370        -0.029115
 H        -1.034994         3.433959        -0.436848
 H        -0.639621         2.802629         1.188924
 H        -2.575563         0.760779         1.317356
 H        -3.039297         1.434914        -0.343576
 H        -2.592735        -1.099105        -1.002569
 H        -1.056217        -1.698610         1.313525
 H        -0.087344        -1.626822        -0.154052
 H        -0.099445        -0.207933        -1.812415
 H        -1.932868         1.894206        -2.435788
