19
Iteration:  3962charge 0 multiplicity 1
 C        -0.128430         2.612523         0.063602
 C        -0.783494         1.181299        -0.074501
 C        -2.373032         0.829428         0.149272
 C        -1.854523        -0.612945        -0.526701
 C        -0.807618        -1.202285         0.477198
 C        -0.114465         0.147248         0.820431
 O         0.729293         0.358299         1.667167
 C        -1.027390         0.408416        -1.413996
 O        -1.776006         1.111538        -2.367468
 H         0.859294         2.556002        -0.253111
 H        -0.591440         3.315829        -0.572148
 H        -0.128896         3.072914         1.029822
 H        -2.710529         0.698882         1.291175
 H        -2.969337         1.503993        -0.483224
 H        -2.707539        -1.218189        -0.930312
 H        -1.092260        -1.530207         1.478043
 H        -0.091356        -1.893626         0.001652
 H        -0.119744         0.001451        -1.966735
 H        -1.121287         1.622532        -2.992970
