19
Iteration:  3685
 C        -0.185093         2.564317        -0.027989
 C        -0.797566         1.141981        -0.037647
 C        -2.389545         0.744839         0.179631
 C        -1.820456        -0.514117        -0.544850
 C        -0.805333        -1.160967         0.532957
 C        -0.103661         0.110307         0.869397
 O         0.772177         0.370440         1.617009
 C        -0.966556         0.414921        -1.428215
 O        -1.787589         1.171174        -2.333382
 H         0.914800         2.588361         0.025247
 H        -0.517677         3.104250        -0.905441
 H        -0.603230         3.070503         0.905741
 H        -2.465741         0.831771         1.320719
 H        -3.121921         1.419921        -0.394991
 H        -2.494548        -1.230700        -0.983112
 H        -1.379449        -1.610417         1.357441
 H        -0.287835        -1.955687         0.003281
 H        -0.121177         0.019693        -1.938237
 H        -1.340325         1.496132        -3.105078
