19
Iteration:  4684
 C        -0.527104         2.728564         0.048728
 C        -0.930551         1.258400         0.100157
 C        -2.396086         0.819617         0.396879
 C        -1.972143        -0.401689        -0.410750
 C        -0.998623        -1.063256         0.526828
 C        -0.088014         0.198985         0.783630
 O         0.961042         0.140064         1.340069
 C        -0.908278         0.270295        -1.383410
 O        -1.367801         1.004669        -2.534539
 H         0.263971         2.792520        -0.691768
 H        -1.426677         3.357957        -0.136400
 H        -0.270650         3.043819         1.124641
 H        -2.732490         0.707920         1.420042
 H        -3.141076         1.556988        -0.044816
 H        -2.630271        -1.049262        -0.946160
 H        -1.428528        -1.548994         1.451650
 H        -0.261479        -1.872933         0.132201
 H         0.084832        -0.289912        -1.555325
 H        -0.568206         1.262717        -3.061284
