19
Iteration:  4366
 C        -0.288470         2.608567         0.021072
 C        -0.873227         1.219832        -0.031202
 C        -2.412507         0.789314         0.116094
 C        -1.899670        -0.479624        -0.487682
 C        -0.918290        -1.083362         0.534736
 C        -0.091924         0.130262         0.810396
 O         0.875998         0.263866         1.502653
 C        -0.903564         0.393610        -1.325725
 O        -1.646406         1.061448        -2.336742
 H         0.572430         2.634630        -0.601702
 H        -1.033165         3.297215        -0.378828
 H         0.041488         2.836673         1.108114
 H        -2.702974         0.715431         1.259286
 H        -3.125663         1.328497        -0.519301
 H        -2.538554        -1.261351        -0.852720
 H        -1.420731        -1.571805         1.411318
 H        -0.287668        -1.852731        -0.038200
 H         0.138738         0.011564        -1.562883
 H        -1.143548         1.724582        -2.795904
