19
Iteration:  4333
 C        -0.163423         2.581483        -0.059863
 C        -0.822564         1.166042        -0.063917
 C        -2.230881         0.691083         0.214806
 C        -1.860553        -0.529660        -0.542077
 C        -0.916047        -1.186715         0.478510
 C        -0.124936         0.116580         0.834109
 O         0.739402         0.408446         1.688062
 C        -0.979083         0.394290        -1.429717
 O        -1.777819         1.200580        -2.347288
 H         0.844489         2.416006        -0.427077
 H        -0.676439         3.308238        -0.702944
 H        -0.160541         3.060592         1.005941
 H        -2.410528         0.671395         1.372947
 H        -2.991465         1.296734        -0.182360
 H        -2.578779        -1.287712        -0.725384
 H        -1.492874        -1.680277         1.310377
 H        -0.198882        -1.943013        -0.008690
 H         0.047953         0.103371        -1.891551
 H        -1.086030         1.530864        -3.044966
