19
Iteration:  2969charge 0 multiplicity 1
 C        -0.463658         2.762820         0.052388
 C        -0.864697         1.175685        -0.007418
 C        -2.325728         0.777567         0.208057
 C        -1.978281        -0.524340        -0.497276
 C        -0.876535        -1.152151         0.514503
 C        -0.017894         0.139401         0.788936
 O         0.987958         0.240009         1.535933
 C        -1.015763         0.336666        -1.369923
 O        -1.484653         1.094295        -2.455749
 H         0.453247         2.809995         0.577486
 H        -0.347985         3.213127        -0.893432
 H        -1.213354         3.397972         0.558433
 H        -2.854965         0.896377         1.161559
 H        -2.979274         1.477639        -0.437490
 H        -2.818903        -1.271203        -0.795448
 H        -1.443261        -1.551135         1.371216
 H        -0.389174        -2.041209         0.131487
 H        -0.111217        -0.098049        -1.780491
 H        -2.293655         1.636628        -2.118003
