19
Iteration:  1657charge 0 multiplicity 1
 C        -0.310035         2.708370         0.085620
 C        -0.875079         1.230789         0.041999
 C        -2.258277         0.742847         0.558338
 C        -2.042461        -0.492823        -0.308319
 C        -0.850782        -1.173727         0.449880
 C         0.019601         0.132176         0.565553
 O         1.227855         0.152709         0.877212
 C        -1.173963         0.443913        -1.253399
 O        -1.873174         1.145987        -2.240627
 H         0.528464         2.482530         0.836975
 H         0.087079         3.052472        -0.885851
 H        -1.274045         3.278174         0.516138
 H        -2.315220         0.463819         1.703629
 H        -3.025374         1.518269         0.306792
 H        -2.858323        -1.131867        -0.664021
 H        -1.084374        -1.690567         1.363014
 H        -0.339858        -1.897184        -0.110321
 H        -0.208524         0.027591        -1.653178
 H        -1.763605         2.027723        -1.963494
