19
Iteration:  2979
 C        -0.479091         2.668577         0.075827
 C        -0.799441         1.228482         0.021227
 C        -2.324503         0.757931         0.226407
 C        -1.930272        -0.489871        -0.508131
 C        -0.912179        -1.093309         0.533522
 C        -0.089926         0.194912         0.852961
 O         0.960242         0.208705         1.431165
 C        -1.003669         0.332204        -1.376016
 O        -1.479846         1.064921        -2.475532
 H         0.446274         2.922101         0.565676
 H        -0.538079         3.069289        -0.906950
 H        -1.323850         3.144552         0.654137
 H        -2.580180         0.391476         1.250177
 H        -2.936267         1.632562        -0.228999
 H        -2.684009        -1.138544        -1.105120
 H        -1.429704        -1.216234         1.500426
 H        -0.312517        -1.956720         0.305770
 H        -0.130921        -0.183031        -1.652583
 H        -2.187074         1.775504        -2.257035
