19
Iteration:  3976charge 0 multiplicity 1
 C        -0.169417         2.578825        -0.049064
 C        -0.803308         1.255291        -0.106629
 C        -2.251481         0.771967         0.238685
 C        -1.865680        -0.496913        -0.525776
 C        -0.836717        -1.163334         0.389808
 C        -0.038003         0.147791         0.809700
 O         0.679189         0.337453         1.779685
 C        -0.953706         0.380655        -1.404417
 O        -1.829907         1.099214        -2.351659
 H         0.922555         2.398739         0.043899
 H        -0.410974         3.303891        -0.915368
 H        -0.430335         2.939758         0.906063
 H        -2.541843         0.721517         1.318678
 H        -3.178262         1.225749        -0.260947
 H        -2.514783        -1.173471        -0.977962
 H        -1.379605        -1.718678         1.119092
 H        -0.227007        -1.864953        -0.161060
 H        -0.043441        -0.000261        -1.837095
 H        -1.251855         1.505916        -2.966118
