19
Iteration:  1390charge 0 multiplicity 1
 C        -0.365796         2.585181         0.026968
 C        -0.797655         1.213446         0.085819
 C        -2.280925         0.771130         0.690643
 C        -2.028437        -0.497089        -0.269767
 C        -0.788380        -1.215648         0.323992
 C         0.130670         0.071916         0.477228
 O         1.325470         0.141137         0.844985
 C        -1.215551         0.516944        -1.270059
 O        -2.069253         1.234938        -2.127270
 H         0.721792         2.546595         0.393118
 H        -0.397271         3.192281        -0.918787
 H        -0.894211         3.277289         0.706531
 H        -2.381390         0.802100         1.802891
 H        -2.900111         1.606535         0.273974
 H        -2.817233        -1.141329        -0.746008
 H        -1.006366        -1.740926         1.219907
 H        -0.252581        -1.897733        -0.191934
 H        -0.399404        -0.067148        -1.787873
 H        -2.090942         2.060783        -1.698037
