19
Iteration:  1902charge 0 multiplicity 1
 C        -0.418083         2.626577         0.214531
 C        -0.856081         1.234876         0.126995
 C        -2.328299         0.756659         0.456086
 C        -1.985758        -0.445540        -0.433264
 C        -0.930049        -1.117388         0.531749
 C         0.017176         0.209081         0.714444
 O         1.249416         0.172648         0.864218
 C        -1.104929         0.407844        -1.294369
 O        -1.733427         1.141783        -2.290463
 H        -0.428723         2.808015         1.280361
 H         0.593466         2.679303        -0.183111
 H        -1.163059         3.188173        -0.357065
 H        -2.520682         0.574271         1.543755
 H        -3.041112         1.439892         0.017870
 H        -2.844762        -1.013128        -0.849773
 H        -1.487815        -1.367419         1.389507
 H        -0.285130        -1.862329         0.191171
 H        -0.250267        -0.051320        -1.761197
 H        -2.015525         0.525734        -2.927710
