19
Iteration:  3157
 C        -0.175463         2.517753        -0.083620
 C        -0.728074         1.182450        -0.166093
 C        -2.166632         0.660767         0.313591
 C        -1.850235        -0.552343        -0.540128
 C        -0.740446        -1.108553         0.413286
 C        -0.132026         0.178239         0.808722
 O         0.552656         0.387836         1.811997
 C        -0.965298         0.408017        -1.432080
 O        -1.850477         1.172718        -2.347956
 H         0.672343         2.532331        -0.772727
 H        -0.910758         3.239845        -0.452281
 H         0.185643         2.882588         0.852389
 H        -2.480536         0.485043         1.386691
 H        -3.037554         1.239313        -0.119361
 H        -2.630307        -1.165265        -0.897320
 H        -1.066104        -1.717896         1.243874
 H         0.040012        -1.634929        -0.154031
 H        -0.137347         0.073776        -1.913066
 H        -1.264123         1.676557        -3.016393
