19
Iteration:  3432
 C        -0.286936         2.539507        -0.131610
 C        -0.781343         1.168027        -0.066425
 C        -2.233253         0.725397         0.248244
 C        -1.783672        -0.534285        -0.573044
 C        -0.783971        -1.179956         0.372010
 C        -0.078063         0.134082         0.876208
 O         0.649606         0.389811         1.806210
 C        -0.964615         0.433857        -1.440544
 O        -1.729998         1.213896        -2.383670
 H         0.852072         2.482845        -0.167885
 H        -0.607015         3.164785        -1.077134
 H        -0.425600         3.076217         0.812235
 H        -2.477062         0.476259         1.274474
 H        -3.211664         0.926166        -0.074565
 H        -2.575840        -1.172998        -0.937695
 H        -1.168926        -1.684651         1.221944
 H        -0.076834        -1.863639        -0.011936
 H        -0.018636         0.100704        -2.075181
 H        -2.539346         1.417126        -1.804058
