19
Iteration:   339
 C         0.136227         2.495217        -0.302883
 C        -0.703284         1.241489        -0.104014
 C        -1.761007         0.714616         0.956922
 C        -1.929750        -0.432668        -0.081090
 C        -0.674432        -1.216083        -0.138127
 C         0.240807        -0.065864         0.174611
 O         1.338020         0.121492         0.623698
 C        -1.737369         0.627881        -1.131695
 O        -2.881691         1.375030        -1.346257
 H        -0.465698         3.428196        -0.103552
 H         0.927472         2.377117         0.402389
 H         0.534951         2.487914        -1.396430
 H        -1.366319         0.543360         1.912488
 H        -2.746410         1.076145         1.153529
 H        -2.695465        -1.162073        -0.002380
 H        -0.519944        -1.863985         0.735481
 H        -0.485658        -1.718922        -1.141857
 H        -1.251201         0.322891        -2.137241
 H        -2.582769         2.204597        -1.018169
