19
Iteration:  4057charge 0 multiplicity 1
 C        -0.225596         2.605167        -0.032168
 C        -0.712077         1.224312        -0.109067
 C        -2.275636         0.777475         0.258355
 C        -1.917580        -0.489906        -0.544238
 C        -0.886315        -1.187670         0.426846
 C        -0.151609         0.133104         0.913499
 O         0.770876         0.340225         1.654327
 C        -0.963851         0.382743        -1.425974
 O        -1.757374         1.079759        -2.329887
 H         0.842706         2.505576         0.398041
 H        -0.108211         3.049324        -1.063264
 H        -0.843547         3.457001         0.499954
 H        -2.515856         0.652697         1.287051
 H        -3.001290         1.342567        -0.248274
 H        -2.689385        -1.200837        -1.008260
 H        -1.388303        -1.844242         1.195311
 H        -0.112691        -1.793377        -0.114320
 H        -0.092684         0.013837        -1.930960
 H        -1.198785         1.766715        -2.709871
