19
Iteration:  2887charge 0 multiplicity 1
 C        -0.201084         2.579674         0.023891
 C        -0.770918         1.156320        -0.083899
 C        -2.164157         0.813045         0.269496
 C        -1.826567        -0.620139        -0.469667
 C        -0.760899        -1.156978         0.431320
 C        -0.111394         0.161736         0.780324
 O         0.624050         0.340475         1.696023
 C        -1.030286         0.410795        -1.431733
 O        -1.773582         1.155970        -2.449214
 H         0.683393         2.778234         0.709215
 H         0.230810         2.829072        -1.036644
 H        -0.958050         3.318847         0.300149
 H        -2.467293         0.673739         1.359290
 H        -2.897265         1.362813        -0.343831
 H        -2.406475        -1.275059        -1.019892
 H        -1.171971        -1.579860         1.334489
 H        -0.026851        -1.796644        -0.101350
 H        -0.148614        -0.008476        -1.936531
 H        -2.543682         1.633731        -2.114251
