19
Iteration:  4840charge 0 multiplicity 1
 C        -0.211316         2.588528        -0.184647
 C        -0.722797         1.219984        -0.070304
 C        -2.177419         0.747278         0.390173
 C        -1.862500        -0.463351        -0.561166
 C        -0.759443        -1.148051         0.366429
 C        -0.078244         0.055019         0.877051
 O         0.592859         0.315937         1.774544
 C        -1.002878         0.425612        -1.413618
 O        -1.822397         1.110435        -2.375265
 H         0.257746         3.059294         0.702706
 H         0.478586         2.803020        -1.019332
 H        -1.075049         3.269939        -0.432832
 H        -2.283893         0.557817         1.376625
 H        -2.953632         1.381888         0.193109
 H        -2.628809        -1.067658        -1.032710
 H        -1.122389        -1.801474         1.245499
 H        -0.232436        -1.942007        -0.202269
 H        -0.126368        -0.013099        -1.995450
 H        -1.354050         1.840945        -2.724874
