19
Iteration:  1437charge 0 multiplicity 1
 C        -0.082799         2.510416        -0.054937
 C        -0.715061         1.137445        -0.107973
 C        -2.053914         0.774631         0.653017
 C        -1.897939        -0.502893        -0.394975
 C        -0.668446        -1.156397         0.221559
 C         0.143270         0.088314         0.504197
 O         1.034541         0.223297         1.293159
 C        -1.321730         0.530115        -1.391683
 O        -2.428716         1.270805        -1.976997
 H         0.947287         2.550576        -0.594968
 H        -0.762975         3.351661        -0.380253
 H         0.084073         2.751198         0.998167
 H        -2.086619         0.425009         1.705951
 H        -2.880934         1.428493         0.357419
 H        -2.714098        -1.114320        -0.707999
 H        -0.754581        -1.803104         1.086723
 H        -0.263839        -1.857054        -0.531657
 H        -0.484952         0.092234        -2.053598
 H        -2.107748         1.705878        -2.751286
