19
Iteration:  2286
 C        -0.178324         2.490004        -0.152107
 C        -0.790616         1.163015        -0.050583
 C        -2.195841         0.888708         0.376375
 C        -1.863962        -0.492754        -0.452874
 C        -0.628711        -1.157896         0.292588
 C         0.024229         0.057368         0.724369
 O         0.792377         0.265052         1.639142
 C        -1.114126         0.463861        -1.380425
 O        -2.107781         1.148594        -2.190499
 H        -0.983937         3.277158        -0.298805
 H         0.481341         2.824526         0.615321
 H         0.448826         2.594391        -1.064355
 H        -2.397715         0.820635         1.488635
 H        -2.930609         1.537056        -0.197369
 H        -2.481006        -1.277614        -1.017141
 H        -0.839935        -1.818794         1.104342
 H         0.060924        -1.601494        -0.374690
 H        -0.248585         0.105591        -1.869768
 H        -1.587902         1.980707        -2.504273
