19
Iteration:  1078charge 0 multiplicity 1
 C        -0.410236         2.761142         0.091752
 C        -0.804493         1.293414         0.175835
 C        -2.160709         0.841171         0.769693
 C        -2.088330        -0.453152        -0.101269
 C        -0.894144        -1.281236         0.529038
 C         0.193504         0.000433         0.493308
 O         1.424396         0.010541         0.302392
 C        -1.274408         0.472816        -1.176763
 O        -2.040273         1.293632        -2.094624
 H         0.745775         2.827073        -0.168195
 H        -1.111327         3.099029        -0.721246
 H        -0.463833         3.393315         0.941101
 H        -2.169250         0.721121         1.911353
 H        -2.989915         1.548698         0.469185
 H        -2.863211        -1.088294        -0.569114
 H        -0.995209        -1.862223         1.433403
 H        -0.486310        -1.937061        -0.087758
 H        -0.540302         0.064277        -1.860655
 H        -2.469330         0.765182        -2.740828
