19
Iteration:  3363charge 0 multiplicity 1
 C        -0.410112         2.649332         0.235911
 C        -0.839316         1.196694        -0.015846
 C        -2.309670         0.795857         0.238251
 C        -1.921855        -0.475328        -0.490099
 C        -0.845044        -1.107753         0.431999
 C        -0.093495         0.168290         0.799855
 O         0.871386         0.330980         1.471769
 C        -1.018914         0.343151        -1.364415
 O        -1.505033         0.970774        -2.514126
 H         0.631004         2.930535        -0.117046
 H        -1.195927         3.079365        -0.505620
 H        -0.603368         2.962535         1.318296
 H        -2.882958         0.736335         1.182091
 H        -2.967113         1.442491        -0.361524
 H        -2.646585        -1.075516        -0.974119
 H        -1.312685        -1.570725         1.317658
 H        -0.280597        -1.915627         0.014695
 H         0.039502        -0.056013        -1.602306
 H        -1.847006         1.802863        -2.296032
