19
Iteration:   897charge 0 multiplicity 1
 C        -0.141879         2.483728        -0.480919
 C        -0.678980         1.147858        -0.147181
 C        -1.941397         0.783041         0.811583
 C        -1.923684        -0.493686        -0.210539
 C        -0.635204        -1.230430         0.135446
 C         0.225542        -0.026060         0.415029
 O         1.207699         0.114615         1.112670
 C        -1.487034         0.561473        -1.300131
 O        -2.546310         1.495853        -1.575630
 H        -0.492373         2.871894        -1.421341
 H        -0.506262         3.221365         0.270139
 H         1.064887         2.597590        -0.367403
 H        -1.732854         0.671486         1.870325
 H        -2.811339         1.376140         0.673422
 H        -2.844020        -1.088058        -0.360871
 H        -0.790686        -1.911326         0.971565
 H        -0.189871        -1.839686        -0.735498
 H        -1.021131         0.271188        -2.266215
 H        -2.749329         1.368253        -2.557973
