19
Iteration:  1766charge 0 multiplicity 1
 C        -0.021644         2.529070        -0.044726
 C        -0.679848         1.185033        -0.016920
 C        -2.065143         0.752403         0.545300
 C        -1.916189        -0.458888        -0.360474
 C        -0.626656        -1.209723         0.154280
 C         0.077888         0.091128         0.670357
 O         0.897322         0.280005         1.538513
 C        -1.290045         0.484792        -1.492201
 O        -2.377141         1.212617        -2.164396
 H         0.079730         2.855823        -1.089128
 H        -0.508706         3.374233         0.447022
 H         1.065580         2.525695         0.178676
 H        -2.165625         0.622560         1.713530
 H        -2.917716         1.412195         0.194725
 H        -2.792228        -1.033402        -0.662365
 H        -0.720928        -1.950389         0.942155
 H        -0.033956        -1.592280        -0.671331
 H        -0.560542        -0.081040        -2.092295
 H        -2.004044         1.513801        -3.067167
