19
Iteration:  3661
 C        -0.320674         2.689905         0.084735
 C        -0.836601         1.216250        -0.052578
 C        -2.220684         0.740848         0.239182
 C        -1.909534        -0.561615        -0.556356
 C        -0.901092        -1.108034         0.575636
 C        -0.084384         0.151269         0.793195
 O         0.862166         0.259819         1.524788
 C        -1.006020         0.395295        -1.362019
 O        -1.680626         1.132501        -2.403673
 H         0.744487         2.690680         0.358054
 H        -0.412780         3.278891        -0.870500
 H        -0.847633         3.152123         0.823925
 H        -2.679670         0.640741         1.329593
 H        -3.014860         1.207355        -0.414621
 H        -2.660610        -1.069357        -1.031908
 H        -1.404327        -1.465312         1.482276
 H        -0.348511        -1.926462         0.122473
 H        -0.064757         0.058794        -1.712224
 H        -1.343097         0.883236        -3.349058
