19
Iteration:  4174
 C        -0.445297         2.739175         0.086452
 C        -0.855282         1.253295         0.121151
 C        -2.350443         0.744861         0.276868
 C        -1.977862        -0.480531        -0.454275
 C        -1.011752        -1.076736         0.580132
 C        -0.162015         0.217235         0.875249
 O         0.966459         0.146635         1.272681
 C        -0.933621         0.354691        -1.382076
 O        -1.440542         1.015856        -2.483047
 H         0.477146         2.809858        -0.477034
 H        -1.161269         3.460588        -0.232487
 H        -0.255796         3.012086         1.038636
 H        -2.843434         0.508166         1.324147
 H        -3.139476         1.314795        -0.448306
 H        -2.703715        -1.150103        -1.043555
 H        -1.390444        -1.369228         1.571461
 H        -0.366844        -1.809670         0.143038
 H         0.099825        -0.051918        -1.482713
 H        -0.765128         1.656540        -2.941903
