19
Iteration:  1299charge 0 multiplicity 1
 C        -0.230172         2.713284         0.328404
 C        -0.824565         1.287937         0.096695
 C        -2.234556         0.832241         0.572423
 C        -1.998567        -0.486676        -0.276863
 C        -0.787224        -1.189152         0.463296
 C         0.100882         0.104707         0.535374
 O         1.302800         0.156545         0.576083
 C        -1.300971         0.384381        -1.304021
 O        -2.116098         1.158959        -2.102684
 H        -0.201278         2.873319         1.373868
 H         0.817465         2.729671        -0.016230
 H        -0.715352         3.569083        -0.252257
 H        -2.289500         0.669577         1.669879
 H        -3.130385         1.397729         0.208194
 H        -2.859998        -1.152808        -0.608307
 H        -1.125448        -1.568188         1.421961
 H        -0.393959        -2.044534        -0.148988
 H        -0.604303        -0.146784        -1.953265
 H        -1.656397         0.879607        -2.939370
