19
Iteration:  2440
 C        -0.477363         2.696674         0.195070
 C        -0.916729         1.210550         0.068426
 C        -2.348430         0.815870         0.348512
 C        -2.004461        -0.511427        -0.395653
 C        -0.878125        -1.065184         0.534842
 C        -0.047403         0.208443         0.651206
 O         1.075183         0.152795         1.088000
 C        -1.051332         0.283725        -1.320631
 O        -1.471673         1.128909        -2.338340
 H         0.332637         2.897935         0.977081
 H        -0.003251         3.086672        -0.742997
 H        -1.271525         3.401784         0.455860
 H        -2.720179         0.791324         1.296552
 H        -3.067863         1.309704        -0.251355
 H        -2.846468        -1.075945        -0.953617
 H        -1.244574        -1.390713         1.528660
 H        -0.232409        -1.910003         0.186607
 H        -0.026167        -0.139717        -1.653049
 H        -2.349111         0.868341        -2.498984
