19
Iteration:  3550charge 0 multiplicity 1
 C        -0.404515         2.645840         0.106101
 C        -0.803746         1.246065        -0.045078
 C        -2.386652         0.768632         0.138159
 C        -1.907427        -0.537810        -0.460818
 C        -0.936048        -1.110887         0.568118
 C        -0.105864         0.174837         0.832611
 O         0.920867         0.261768         1.391509
 C        -0.948562         0.397129        -1.309675
 O        -1.524203         1.042525        -2.411027
 H         0.620105         2.793078        -0.340077
 H        -1.115729         3.422760        -0.407391
 H        -0.298827         2.924408         1.135856
 H        -3.015205         0.580084         1.081513
 H        -3.085033         1.265725        -0.509164
 H        -2.568481        -1.183647        -0.894116
 H        -1.407981        -1.583113         1.424699
 H        -0.253563        -1.893476         0.180911
 H        -0.141683        -0.125036        -1.725722
 H        -1.632102         1.933559        -2.258622
