19
Iteration:  3754
 C        -0.229578         2.672073        -0.049489
 C        -0.720027         1.193576        -0.068078
 C        -2.143640         0.825926         0.377565
 C        -1.917789        -0.495555        -0.499429
 C        -0.800437        -1.076004         0.294133
 C        -0.074945         0.123204         0.840686
 O         0.639124         0.272714         1.822138
 C        -1.048300         0.359664        -1.453526
 O        -1.739431         1.017354        -2.509236
 H         0.315917         2.837784        -0.989881
 H        -1.156277         3.223758        -0.196404
 H         0.365457         3.080284         0.942709
 H        -2.374179         0.625290         1.412902
 H        -2.957832         1.275632        -0.126436
 H        -2.699026        -1.283165        -0.877055
 H        -1.210362        -1.397945         1.272188
 H        -0.246977        -1.963645        -0.068659
 H        -0.206925        -0.159926        -1.918227
 H        -1.490056         1.894727        -2.421703
