19
Iteration:  1829
 C        -0.326418         2.668395        -0.015830
 C        -0.737754         1.202394         0.016520
 C        -2.187946         0.709811         0.521361
 C        -2.001791        -0.512562        -0.425485
 C        -0.918481        -1.216523         0.443688
 C         0.034687         0.099572         0.699307
 O         1.206597         0.228760         1.128198
 C        -1.146333         0.399724        -1.293828
 O        -1.980909         1.312931        -2.198082
 H        -1.320716         3.280992        -0.002508
 H         0.248539         2.798139         0.889013
 H         0.287246         2.769469        -0.901728
 H        -2.341250         0.586643         1.596647
 H        -2.903850         1.425799         0.105566
 H        -2.777241        -1.078021        -0.931112
 H        -1.369139        -1.491121         1.473686
 H        -0.391046        -2.140341        -0.019448
 H        -0.377543        -0.158115        -1.947096
 H        -1.727389         1.148983        -3.161666
