19
Iteration:  4265charge 0 multiplicity 1
 C        -0.185324         2.667164        -0.077313
 C        -0.709667         1.202793        -0.037746
 C        -2.169109         0.854637         0.307368
 C        -1.823489        -0.482613        -0.501040
 C        -0.817968        -1.111298         0.341529
 C        -0.065859         0.025269         0.805657
 O         0.603089         0.275808         1.776976
 C        -1.029947         0.464174        -1.416984
 O        -1.830909         0.966765        -2.407512
 H         0.897531         2.662011        -0.021657
 H        -0.583953         3.216949        -0.918109
 H        -0.631452         3.059018         0.773646
 H        -2.451000         0.776041         1.473911
 H        -2.923069         1.533334        -0.130103
 H        -2.606622        -0.998608        -1.103090
 H        -1.241960        -1.634518         1.216065
 H        -0.171766        -1.809322        -0.278467
 H        -0.096772         0.047424        -1.940862
 H        -1.416197         1.828897        -2.696739
