19
Iteration:  2674
 C        -0.326464         2.693683         0.171051
 C        -0.859746         1.218874         0.077188
 C        -2.291372         0.721271         0.348682
 C        -1.913801        -0.480946        -0.471866
 C        -0.910831        -1.102600         0.463496
 C        -0.150074         0.203001         0.814166
 O         0.955692         0.248847         1.319290
 C        -1.090717         0.379275        -1.356331
 O        -1.526456         1.013270        -2.502798
 H        -1.237891         3.272461        -0.080407
 H         0.196408         3.026236         1.060955
 H         0.279985         2.647220        -0.817162
 H        -2.683342         0.716406         1.304630
 H        -2.995602         1.294304        -0.155715
 H        -2.605317        -1.251643        -0.957322
 H        -1.358288        -1.519219         1.355954
 H        -0.119470        -1.638034        -0.077369
 H        -0.040789         0.034072        -1.708525
 H        -2.253171         1.641046        -2.219481
