19
Iteration:  1828charge 0 multiplicity 1
 C        -0.327084         2.662725        -0.019137
 C        -0.735907         1.198273         0.012785
 C        -2.180297         0.718759         0.525329
 C        -1.996852        -0.514901        -0.428112
 C        -0.916304        -1.218314         0.436333
 C         0.029835         0.097431         0.693847
 O         1.196931         0.229148         1.133440
 C        -1.144703         0.403070        -1.283929
 O        -1.987538         1.309660        -2.194695
 H        -1.317655         3.294237        -0.012837
 H         0.255173         2.825229         0.886106
 H         0.323693         2.790561        -0.875366
 H        -2.328260         0.593386         1.558308
 H        -2.867555         1.420120         0.098119
 H        -2.768485        -1.090629        -0.937416
 H        -1.343660        -1.483678         1.476560
 H        -0.391465        -2.140617        -0.006536
 H        -0.394062        -0.122149        -1.945024
 H        -1.733075         1.146639        -3.174843
