19
Iteration:  3405charge 0 multiplicity 1
 C        -0.272031         2.706333        -0.040833
 C        -0.751624         1.238757         0.013030
 C        -2.268608         0.669505         0.275582
 C        -1.844755        -0.554792        -0.551355
 C        -0.747298        -1.136063         0.394583
 C        -0.146561         0.150768         0.787444
 O         0.684456         0.298301         1.694853
 C        -1.043676         0.409667        -1.375945
 O        -1.645331         1.084046        -2.465306
 H         0.808455         2.847145        -0.142982
 H        -0.736116         3.282457        -0.811950
 H        -0.453230         3.207843         0.950946
 H        -2.527099         0.503759         1.357429
 H        -3.223398         1.115519        -0.189132
 H        -2.631232        -1.244996        -0.971031
 H        -1.151019        -1.581702         1.368821
 H         0.091508        -1.852304         0.092676
 H        -0.315442        -0.130879        -1.901394
 H        -2.069642         1.935710        -2.123481
