19
Iteration:   592
 C        -0.085427         2.549296        -0.279747
 C        -0.684608         1.155302        -0.115185
 C        -1.899998         0.660947         0.913881
 C        -2.006312        -0.466366        -0.036012
 C        -0.692241        -1.258928         0.032244
 C         0.248504         0.009565         0.283764
 O         1.402035         0.087850         0.714628
 C        -1.631414         0.519278        -1.208550
 O        -2.568529         1.598992        -1.547310
 H         0.826457         2.629560         0.293379
 H         0.051879         2.805083        -1.295860
 H        -0.895803         3.295178         0.162031
 H        -1.709156         0.512084         2.032780
 H        -2.743727         1.395976         0.900193
 H        -3.018648        -0.933723        -0.055503
 H        -0.659941        -1.969166         0.855342
 H        -0.357756        -1.911868        -0.888267
 H        -1.356407        -0.055928        -2.077354
 H        -2.929836         1.236535        -2.356341
