19
Iteration:  2452
 C        -0.510159         2.633174         0.143329
 C        -0.873688         1.233968         0.061965
 C        -2.417054         0.878345         0.278481
 C        -2.012399        -0.478667        -0.359696
 C        -0.861172        -1.132386         0.493693
 C        -0.053972         0.095743         0.763277
 O         1.129120         0.196284         1.092467
 C        -1.022182         0.391387        -1.257627
 O        -1.478697         1.125612        -2.362852
 H         0.308490         2.657564         0.910278
 H        -0.221934         3.118253        -0.832402
 H        -1.420205         3.099129         0.477567
 H        -2.662265         0.910227         1.308797
 H        -3.002799         1.505209        -0.341362
 H        -2.767079        -1.321872        -0.616448
 H        -1.234370        -1.474320         1.464852
 H        -0.213091        -1.850315        -0.017359
 H        -0.184387        -0.287337        -1.641721
 H        -2.456788         1.048433        -2.545577
