19
Iteration:  3168charge 0 multiplicity 1
 C        -0.142634         2.598360        -0.075171
 C        -0.709607         1.171112        -0.066876
 C        -2.224240         0.675417         0.283596
 C        -1.800116        -0.543053        -0.582159
 C        -0.761903        -1.144538         0.376846
 C        -0.084347         0.163802         0.890861
 O         0.579894         0.426382         1.838022
 C        -1.094878         0.413045        -1.532322
 O        -1.839417         1.156575        -2.336423
 H         0.803157         2.463105        -0.602480
 H        -0.708936         3.362264        -0.630084
 H         0.117253         2.838619         0.935362
 H        -2.266862         0.252028         1.311545
 H        -3.019302         1.392509        -0.071589
 H        -2.438781        -1.309544        -0.897400
 H        -1.245219        -1.796080         1.087679
 H        -0.002132        -1.738286        -0.139738
 H        -0.406543        -0.070836        -2.077545
 H        -1.359688         1.292202        -3.128880
