19
Iteration:  4352charge 0 multiplicity 1
 C        -0.207380         2.570316        -0.020804
 C        -0.776204         1.197693        -0.015282
 C        -2.371111         0.749509         0.224033
 C        -1.866667        -0.569399        -0.598837
 C        -0.919801        -1.134611         0.476159
 C        -0.194849         0.202376         0.828283
 O         0.814519         0.352148         1.545804
 C        -0.935977         0.369338        -1.361930
 O        -1.695700         1.106014        -2.271273
 H         0.744553         2.729042        -0.501107
 H        -0.867318         3.284030        -0.465586
 H        -0.011784         2.910613         0.914412
 H        -2.747648         0.655123         1.368862
 H        -3.012159         1.402069        -0.311361
 H        -2.535940        -1.025906        -1.327731
 H        -1.349944        -1.464443         1.416966
 H        -0.192110        -1.920677         0.248507
 H        -0.171077        -0.088154        -1.922411
 H        -0.976148         1.576588        -2.851627
