19
Iteration:  4728charge 0 multiplicity 1
 C        -0.352732         2.662658         0.224132
 C        -0.886374         1.253265         0.039362
 C        -2.397641         0.846807         0.071784
 C        -1.902141        -0.538549        -0.510218
 C        -0.981929        -1.080336         0.682050
 C        -0.172429         0.187493         0.842299
 O         0.960568         0.262134         1.233994
 C        -0.870073         0.348349        -1.339595
 O        -1.552235         0.987135        -2.399854
 H         0.682184         2.431270        -0.038401
 H        -0.882624         3.378162        -0.448687
 H        -0.557214         3.055657         1.286944
 H        -2.873951         0.843407         0.988532
 H        -3.145765         1.323774        -0.550141
 H        -2.673780        -1.192181        -0.767353
 H        -1.548561        -1.558054         1.538601
 H        -0.370285        -1.992076         0.349694
 H         0.067510        -0.116324        -1.804495
 H        -0.941118         1.691588        -2.693476
