19
Iteration:  3731charge 0 multiplicity 1
 C        -0.199102         2.627776        -0.148632
 C        -0.780362         1.197454        -0.143817
 C        -2.273581         0.830821         0.341148
 C        -1.834653        -0.475167        -0.422461
 C        -0.790121        -1.234894         0.412095
 C        -0.070358         0.071495         0.786235
 O         0.608544         0.309518         1.769185
 C        -0.987002         0.448482        -1.371975
 O        -1.762323         1.079519        -2.456450
 H         0.668577         2.606825        -0.815972
 H        -0.878001         3.347575        -0.542422
 H         0.117671         2.843361         1.048008
 H        -2.525116         0.485438         1.380098
 H        -3.073390         1.370676        -0.185789
 H        -2.677046        -1.112901        -0.950987
 H        -0.987375        -1.825986         1.316619
 H         0.117154        -1.645527        -0.065426
 H        -0.126505         0.067328        -1.893991
 H        -1.441931         2.056539        -2.385914
