19
Iteration:  3808charge 0 multiplicity 1
 C        -0.199538         2.607831         0.084446
 C        -0.890956         1.230695         0.060351
 C        -2.377903         0.774661         0.164713
 C        -1.903098        -0.522410        -0.573187
 C        -0.876505        -1.126255         0.559312
 C        -0.115709         0.186220         0.842100
 O         0.871037         0.321116         1.539239
 C        -0.973661         0.364659        -1.408476
 O        -1.681579         1.090375        -2.389078
 H         0.309694         2.727824        -0.855502
 H        -0.865917         3.433996         0.151786
 H         0.626619         2.592663         0.925969
 H        -3.100531         0.638548         1.086219
 H        -2.926589         1.389681        -0.559789
 H        -2.495509        -1.301688        -1.216907
 H        -1.388724        -1.385133         1.516413
 H        -0.367038        -1.993018         0.112647
 H        -0.137587        -0.099108        -1.883062
 H        -1.116201         1.244107        -3.089748
