19
Iteration:  3494
 C        -0.287395         2.644702         0.020315
 C        -0.749679         1.252051         0.016096
 C        -2.245789         0.819722         0.354055
 C        -1.855777        -0.607766        -0.556398
 C        -0.796552        -1.147888         0.386709
 C        -0.092213         0.150401         0.810475
 O         0.673303         0.309123         1.681782
 C        -0.966161         0.429560        -1.411268
 O        -1.746422         1.101003        -2.460567
 H         0.811372         2.684527        -0.226311
 H        -0.840216         3.385895        -0.636100
 H        -0.315850         2.979822         1.035983
 H        -2.547770         0.618435         1.442777
 H        -3.011188         1.343898        -0.237419
 H        -2.624211        -1.254081        -1.024981
 H        -1.166864        -1.675903         1.288560
 H         0.018714        -1.749439        -0.102507
 H        -0.091533         0.033981        -1.847221
 H        -1.623026         0.599947        -3.330492
