19
Iteration:  3938charge 0 multiplicity 1
 C        -0.279262         2.547941         0.112380
 C        -0.843667         1.190578        -0.034312
 C        -2.327714         0.804255         0.165163
 C        -1.825284        -0.518210        -0.538189
 C        -0.967584        -1.090461         0.484608
 C        -0.156593         0.192119         0.866966
 O         0.873884         0.350126         1.514182
 C        -0.937879         0.347014        -1.365920
 O        -1.693210         1.057860        -2.397136
 H         0.589349         2.543033        -0.511160
 H        -0.856987         3.360779        -0.117517
 H         0.153442         2.703267         1.138333
 H        -2.686646         0.640936         1.226507
 H        -3.019046         1.361619        -0.456211
 H        -2.767787        -1.053883        -0.893055
 H        -1.517824        -1.607123         1.332976
 H        -0.189122        -1.773171         0.048017
 H         0.013515        -0.050678        -1.862751
 H        -1.033910         1.681160        -2.731942
