19
Iteration:  2776charge 0 multiplicity 1
 C        -0.397459         2.565117         0.127462
 C        -0.883806         1.181282         0.030474
 C        -2.415585         0.931356         0.204697
 C        -1.948658        -0.533841        -0.457795
 C        -0.889446        -1.163661         0.537145
 C        -0.089188         0.179319         0.751237
 O         0.997166         0.271661         1.307981
 C        -0.943316         0.460721        -1.318157
 O        -1.507297         1.032103        -2.379380
 H        -0.828736         3.000025         1.082540
 H         0.724391         2.640921         0.124253
 H        -0.991741         3.076778        -0.650268
 H        -2.748150         0.782803         1.255281
 H        -3.022241         1.456224        -0.521969
 H        -2.675505        -1.161036        -0.855299
 H        -1.342270        -1.740371         1.360187
 H        -0.236937        -1.959199         0.175988
 H         0.004704         0.118935        -1.805543
 H        -2.372045         1.492852        -2.197647
