19
Iteration:  1075charge 0 multiplicity 1
 C        -0.421327         2.763232         0.087411
 C        -0.811896         1.271594         0.173451
 C        -2.179006         0.847710         0.772073
 C        -2.091435        -0.455688        -0.118910
 C        -0.906469        -1.268737         0.529304
 C         0.211238         0.023327         0.492686
 O         1.424211        -0.005415         0.276951
 C        -1.283317         0.482628        -1.156153
 O        -2.023827         1.292349        -2.065309
 H         0.736789         2.863109        -0.071034
 H        -1.020151         3.092407        -0.800891
 H        -0.578589         3.465489         0.970003
 H        -2.154616         0.795509         1.889749
 H        -2.966068         1.597766         0.457366
 H        -2.819394        -1.145528        -0.472393
 H        -1.034945        -1.857979         1.478418
 H        -0.384256        -2.080731        -0.159843
 H        -0.538065         0.040643        -1.885384
 H        -2.324615         0.682803        -2.839584
