19
Iteration:   996
 C        -0.059238         2.533846         0.040396
 C        -0.835404         1.223357         0.050271
 C        -2.049186         0.892043         0.747948
 C        -2.030788        -0.440700        -0.186860
 C        -0.752927        -1.120362         0.334958
 C         0.146196         0.092779         0.383731
 O         1.337103         0.094180         0.638539
 C        -1.406644         0.491299        -1.264351
 O        -2.407469         1.138984        -1.994548
 H         0.009741         3.021551         0.975293
 H         0.992514         2.307030        -0.142496
 H        -0.511155         3.252739        -0.743374
 H        -1.991838         0.668784         1.796270
 H        -2.931606         1.434712         0.514353
 H        -2.848371        -1.112169        -0.425197
 H        -0.889071        -1.472034         1.365320
 H        -0.261072        -1.976667        -0.306172
 H        -0.581759         0.154521        -1.900724
 H        -2.488071         1.930865        -1.401025
