19
Iteration:  3845charge 0 multiplicity 1
 C        -0.346301         2.642502         0.108455
 C        -0.916995         1.226285         0.047742
 C        -2.357315         0.803351         0.227902
 C        -1.875578        -0.535338        -0.502101
 C        -0.997923        -1.122198         0.595489
 C        -0.202350         0.139731         0.816741
 O         0.898048         0.271256         1.304924
 C        -0.908645         0.336667        -1.337314
 O        -1.516908         1.105103        -2.386081
 H         0.189518         2.858243        -0.910879
 H        -1.240109         3.455834         0.182387
 H         0.328427         2.862723         0.941107
 H        -2.763968         0.653014         1.127582
 H        -2.877716         1.457877        -0.458997
 H        -2.514849        -1.092833        -1.116159
 H        -1.341724        -1.284332         1.623044
 H        -0.279383        -1.934872         0.459355
 H         0.075222        -0.121415        -1.546338
 H        -0.889415         1.242043        -3.154037
