19
Iteration:  4241
 C        -0.172337         2.639092        -0.017530
 C        -0.765835         1.195931        -0.100015
 C        -2.318055         0.727004         0.243996
 C        -1.871982        -0.538834        -0.516287
 C        -0.852179        -1.147199         0.470938
 C        -0.123672         0.184849         0.837726
 O         0.767717         0.289497         1.699119
 C        -0.967022         0.383353        -1.449999
 O        -1.796028         1.112304        -2.408508
 H         0.925447         2.549115        -0.085723
 H        -0.570543         3.327952        -0.725674
 H        -0.398171         2.911777         0.928556
 H        -2.601077         0.629203         1.413503
 H        -2.930974         1.653294        -0.149272
 H        -2.793574        -0.989326        -1.034895
 H        -1.413029        -1.491345         1.357322
 H        -0.164625        -1.916128         0.143573
 H        -0.109668        -0.035498        -2.008956
 H        -1.121912         1.611088        -2.776500
