19
Iteration:  4494
 C        -0.264729         2.622185        -0.010547
 C        -0.796170         1.226568        -0.026244
 C        -2.260257         0.748833         0.197374
 C        -1.867794        -0.559543        -0.539651
 C        -1.036616        -1.222052         0.504819
 C        -0.123124         0.156901         0.834094
 O         0.849390         0.333488         1.517017
 C        -0.933015         0.433257        -1.374686
 O        -1.690427         1.135395        -2.289146
 H         0.804918         2.765979         0.479883
 H        -0.277911         2.962887        -1.101230
 H        -0.952322         3.329717         0.448521
 H        -2.613548         0.620712         1.229282
 H        -2.994347         1.290344        -0.296223
 H        -2.737632        -1.110178        -0.882701
 H        -1.509095        -1.575839         1.400257
 H        -0.225407        -1.924807         0.350327
 H        -0.024951        -0.049591        -1.870730
 H        -1.110710         1.329479        -3.085753
