19
Iteration:  3628
 C        -0.469024         2.715355         0.124438
 C        -0.871785         1.227089         0.090736
 C        -2.331748         0.848781         0.279137
 C        -1.951631        -0.475109        -0.449051
 C        -0.913816        -1.149675         0.502953
 C        -0.097945         0.116565         0.802727
 O         0.945324         0.227506         1.333121
 C        -0.976960         0.348466        -1.309424
 O        -1.431883         1.086885        -2.469366
 H         0.585759         2.929555         0.378139
 H        -0.824202         3.156990        -0.862243
 H        -1.097121         3.199680         0.818183
 H        -2.874690         0.916799         1.313656
 H        -2.801022         1.362219        -0.592893
 H        -2.707471        -0.999481        -0.887458
 H        -1.261002        -1.657675         1.404714
 H        -0.340333        -1.882851        -0.069872
 H        -0.029368        -0.047625        -1.502766
 H        -1.971663         0.428435        -2.986083
