19
Iteration:  4151
 C        -0.547343         2.721191         0.188891
 C        -0.868943         1.248625         0.013286
 C        -2.402971         0.912803         0.253596
 C        -1.908813        -0.462422        -0.442308
 C        -1.017445        -1.114192         0.576907
 C        -0.071967         0.134902         0.796835
 O         1.024475         0.128714         1.269584
 C        -0.964489         0.381270        -1.308371
 O        -1.422301         0.939011        -2.498083
 H         0.355641         2.933183        -0.307520
 H        -1.306877         3.311624        -0.293316
 H        -0.550757         3.087587         1.153167
 H        -2.583043         0.818547         1.396384
 H        -3.193317         1.657662        -0.308505
 H        -2.536643        -1.008485        -1.148981
 H        -1.641041        -1.264950         1.474148
 H        -0.472770        -1.998577         0.299238
 H         0.036739        -0.087793        -1.411263
 H        -0.822988         1.600192        -2.820308
