19
Iteration:  3471charge 0 multiplicity 1
 C        -0.217544         2.589493        -0.057097
 C        -0.802975         1.249977        -0.134299
 C        -2.300381         0.692791         0.220614
 C        -1.853069        -0.528277        -0.486198
 C        -0.717046        -1.130883         0.367562
 C        -0.055839         0.138673         0.818388
 O         0.628392         0.332039         1.777972
 C        -0.956895         0.411427        -1.423282
 O        -1.715574         1.180557        -2.335604
 H         0.863497         2.669191        -0.135679
 H        -0.665563         3.299614        -0.729733
 H        -0.469808         2.942469         0.947238
 H        -2.351736         0.729393         1.347182
 H        -3.169189         1.220822        -0.292051
 H        -2.645180        -1.230911        -0.944930
 H        -1.119543        -1.724789         1.238658
 H        -0.045531        -1.795672        -0.277035
 H        -0.171550        -0.079244        -1.925529
 H        -2.463010         0.710778        -2.631083
