19
Iteration:  1371charge 0 multiplicity 1
 C        -0.415393         2.677710         0.114096
 C        -0.822415         1.307675         0.171725
 C        -2.228440         0.732098         0.567953
 C        -1.965140        -0.454895        -0.257636
 C        -0.819648        -1.142218         0.438388
 C         0.081550         0.034521         0.588553
 O         1.305907         0.048233         0.610832
 C        -1.240178         0.418030        -1.213766
 O        -1.937035         1.235417        -2.161803
 H         0.572990         2.925426         0.686824
 H        -0.399651         3.059325        -0.929672
 H        -1.153062         3.344950         0.463188
 H        -2.306724         0.522588         1.655569
 H        -3.136967         1.326105         0.375421
 H        -2.771547        -1.089516        -0.503075
 H        -1.085339        -1.634356         1.385969
 H        -0.265870        -1.933131        -0.193370
 H        -0.431116         0.125717        -1.983236
 H        -2.470936         1.944592        -1.743845
