19
Iteration:  1242charge 0 multiplicity 1
 C        -0.140254         2.658257        -0.194424
 C        -0.633943         1.211541        -0.052991
 C        -2.063072         0.649893         0.641396
 C        -2.005299        -0.530772        -0.285857
 C        -0.719128        -1.207148         0.276584
 C         0.126543         0.060082         0.527014
 O         1.146927         0.171833         1.138660
 C        -1.373363         0.513544        -1.323374
 O        -2.288377         1.318162        -2.022975
 H        -0.922914         3.368961         0.261982
 H         0.816855         2.812229         0.349201
 H        -0.162896         3.078322        -1.190605
 H        -2.005117         0.464729         1.770396
 H        -2.959344         1.293689         0.517114
 H        -2.888735        -1.130837        -0.414061
 H        -0.776234        -1.991454         1.109830
 H        -0.146936        -1.872695        -0.606830
 H        -0.620549         0.131106        -2.099876
 H        -2.845138         1.754293        -1.282765
