19
Iteration:  4391charge 0 multiplicity 1
 C        -0.387552         2.741051         0.114731
 C        -0.857548         1.254598         0.108318
 C        -2.377705         0.833736         0.226179
 C        -1.937811        -0.454514        -0.518196
 C        -0.938240        -1.136718         0.560069
 C        -0.139551         0.153477         0.847335
 O         0.986995         0.186294         1.411776
 C        -0.997321         0.317050        -1.349587
 O        -1.535319         0.972080        -2.554650
 H         0.495631         3.015071        -0.594012
 H        -1.353724         3.222090        -0.266216
 H        -0.084673         3.063615         1.252005
 H        -2.675798         1.037837         1.201770
 H        -3.006378         1.436588        -0.561883
 H        -2.700509        -1.144634        -0.960764
 H        -1.446746        -1.494164         1.528395
 H        -0.190638        -1.880085         0.191376
 H         0.092353        -0.112532        -1.457517
 H        -1.198297         1.818766        -2.586988
