19
Iteration:  2246
 C        -0.148979         2.688849         0.116971
 C        -0.733568         1.221185        -0.113159
 C        -2.197351         0.749447         0.480346
 C        -1.910533        -0.560034        -0.508678
 C        -0.800032        -1.077632         0.414040
 C        -0.048828         0.154273         0.681446
 O         0.909207         0.281287         1.407034
 C        -1.190259         0.351345        -1.446369
 O        -1.960467         1.073717        -2.311853
 H        -0.450342         3.436229        -0.642463
 H        -0.485681         2.995304         1.132352
 H         0.910779         2.520114        -0.004869
 H        -1.826460         0.515992         1.569036
 H        -3.000701         1.483033         0.437181
 H        -2.689558        -1.197460        -0.884711
 H        -1.259166        -1.617221         1.265799
 H        -0.161500        -1.901385        -0.050909
 H        -0.471585        -0.222362        -2.187256
 H        -1.874545         1.988871        -2.326270
