19
Iteration:  3687charge 0 multiplicity 1
 C        -0.182777         2.549737        -0.038974
 C        -0.802366         1.143417        -0.050252
 C        -2.371144         0.752610         0.181288
 C        -1.827299        -0.512333        -0.558713
 C        -0.802535        -1.150614         0.531798
 C        -0.110717         0.105596         0.863263
 O         0.780545         0.379058         1.636322
 C        -0.975888         0.409494        -1.417105
 O        -1.793785         1.167680        -2.320382
 H         0.922605         2.575167        -0.009581
 H        -0.497811         3.106277        -0.901739
 H        -0.596268         3.094094         0.973336
 H        -2.537784         0.792417         1.256912
 H        -3.112227         1.348072        -0.371695
 H        -2.554993        -1.250864        -1.058424
 H        -1.357029        -1.628950         1.351502
 H        -0.290150        -1.915863        -0.040205
 H        -0.072735         0.015569        -1.922730
 H        -1.301370         1.556795        -3.123666
