19
Iteration:  4712charge 0 multiplicity 1
 C        -0.426424         2.679695         0.163037
 C        -0.879362         1.233119         0.080508
 C        -2.388889         0.867563         0.172661
 C        -1.956554        -0.478938        -0.440754
 C        -1.043155        -1.149926         0.543176
 C        -0.144840         0.131359         0.815150
 O         1.014234         0.297062         1.243918
 C        -0.930393         0.308706        -1.277970
 O        -1.466930         0.950286        -2.435296
 H         0.567407         3.101270        -0.193132
 H        -1.183557         3.343273        -0.330869
 H        -0.425355         2.905185         1.229970
 H        -2.888178         0.903856         1.267672
 H        -2.782393         1.531426        -0.653968
 H        -2.540847        -1.131593        -1.220239
 H        -1.586295        -1.309188         1.445402
 H        -0.393208        -1.930079         0.267826
 H         0.008425        -0.161337        -1.393055
 H        -0.767271         1.692813        -2.701389
