19
Iteration:  3247
 C        -0.420782         2.638633         0.046084
 C        -0.843459         1.165792         0.007959
 C        -2.349577         0.788333         0.346360
 C        -1.868813        -0.507129        -0.513163
 C        -0.895624        -1.166538         0.481323
 C        -0.057507         0.082018         0.854723
 O         0.895665         0.314853         1.499363
 C        -0.963197         0.386398        -1.362966
 O        -1.519419         1.205802        -2.503042
 H         0.608224         2.887535         0.264982
 H        -0.720349         3.052282        -0.935550
 H        -1.046145         3.083809         0.732288
 H        -2.829062         0.739580         1.348152
 H        -3.048724         1.341013        -0.260792
 H        -2.569540        -1.193223        -1.036531
 H        -1.489737        -1.505408         1.370052
 H        -0.315476        -2.062011         0.176095
 H        -0.083254        -0.054720        -1.594944
 H        -2.198750         0.750196        -2.995502
