19
Iteration:  1456
 C        -0.023446         2.672551        -0.083860
 C        -0.631172         1.171608        -0.081860
 C        -2.039227         0.753838         0.526320
 C        -1.887148        -0.484024        -0.390849
 C        -0.657053        -1.276175         0.095602
 C         0.151538         0.070689         0.561569
 O         0.979686         0.197415         1.412028
 C        -1.336260         0.554961        -1.370978
 O        -2.470802         1.224729        -1.890717
 H         0.500118         2.611345        -1.103393
 H        -0.811241         3.495447        -0.159272
 H         0.623873         2.777746         0.750473
 H        -1.962682         0.598358         1.639313
 H        -2.877977         1.351038         0.086362
 H        -2.851380        -0.967490        -0.622963
 H        -0.938857        -1.850442         0.966249
 H        -0.097196        -1.854277        -0.549858
 H        -0.668473         0.222851        -2.179145
 H        -2.473416         1.313268        -2.891088
