19
Iteration:  3562charge 0 multiplicity 1
 C        -0.399753         2.684795         0.035001
 C        -0.954080         1.230102        -0.004325
 C        -2.484268         0.762880         0.173420
 C        -1.884011        -0.538278        -0.477350
 C        -1.001666        -1.198145         0.631205
 C        -0.097967         0.112395         0.853723
 O         1.023999         0.288192         1.350616
 C        -0.871488         0.408437        -1.336550
 O        -1.471579         1.080721        -2.441671
 H         0.691507         2.785614        -0.237753
 H        -1.064012         3.584938        -0.342717
 H        -0.438638         2.799116         1.117354
 H        -2.777327         0.904347         1.252855
 H        -3.108599         1.258398        -0.548510
 H        -2.455867        -1.143854        -1.010119
 H        -1.600014        -1.512689         1.474500
 H        -0.335652        -1.975185         0.281578
 H         0.041627        -0.061561        -1.616252
 H        -1.935712         1.918705        -2.092144
