19
Iteration:    99charge 0 multiplicity 1
 C        -0.142816         2.538602        -0.286731
 C        -0.682025         1.129101        -0.163549
 C        -1.674814         0.495823         1.069301
 C        -1.999128        -0.515835        -0.043997
 C        -0.628455        -1.281787        -0.171271
 C         0.264960        -0.028665         0.107203
 O         1.459460         0.075340         0.450835
 C        -1.758475         0.695020        -1.070475
 O        -2.790484         1.664886        -1.260875
 H        -0.347439         3.086666        -1.190753
 H        -0.298627         3.183259         0.541358
 H         0.936492         2.362935        -0.350910
 H        -1.255065         0.180241         1.998829
 H        -2.431959         1.252624         1.189901
 H        -2.889916        -1.112263        -0.129184
 H        -0.444630        -1.983409         0.632579
 H        -0.378106        -1.640698        -1.169825
 H        -1.403063         0.447414        -2.032474
 H        -3.226903         2.010118        -0.492141
