19
Iteration:  4602
 C        -0.105515         2.587215         0.043177
 C        -0.792930         1.212825        -0.168180
 C        -2.318909         0.735875         0.141257
 C        -1.839082        -0.564210        -0.485412
 C        -0.813235        -1.185329         0.528373
 C        -0.147592         0.114748         0.851416
 O         0.762560         0.384447         1.718902
 C        -0.990734         0.404500        -1.475537
 O        -1.857359         1.177103        -2.378301
 H         1.024429         2.646260         0.026194
 H        -0.465132         3.194485        -0.795552
 H        -0.392535         2.979098         1.003154
 H        -2.427982         0.627092         1.149373
 H        -3.018898         1.274159        -0.340064
 H        -2.424311        -1.386544        -0.915215
 H        -1.409567        -1.398460         1.405982
 H        -0.258715        -1.996556         0.216206
 H        -0.219335        -0.092183        -2.056273
 H        -1.282438         1.518304        -3.023387
