19
Iteration:  4274charge 0 multiplicity 1
 C        -0.183638         2.693515        -0.083710
 C        -0.667107         1.213527        -0.110762
 C        -2.223694         0.863554         0.336606
 C        -1.869409        -0.423940        -0.519000
 C        -0.773578        -1.242044         0.301517
 C        -0.101667         0.101756         0.825570
 O         0.602294         0.261831         1.810028
 C        -0.961367         0.423067        -1.379913
 O        -1.867386         0.961430        -2.406016
 H         0.913767         2.841392         0.002545
 H        -0.528819         3.292842        -0.915566
 H        -0.609972         3.142119         0.727659
 H        -2.403089         0.773642         1.525993
 H        -2.753518         1.729184        -0.225321
 H        -2.764984        -1.024702        -0.937904
 H        -1.180396        -1.912556         1.065520
 H        -0.051804        -1.762102        -0.319914
 H        -0.106990        -0.014482        -1.874841
 H        -1.396885         1.811526        -2.612332
