19
Iteration:  3281charge 0 multiplicity 1
 C        -0.476941         2.752358         0.047862
 C        -0.836113         1.248154         0.043931
 C        -2.482753         0.715349         0.211569
 C        -1.907593        -0.561389        -0.462845
 C        -1.002622        -1.091625         0.499814
 C        -0.130272         0.189075         0.845316
 O         1.012949         0.222673         1.266746
 C        -0.944420         0.314505        -1.254293
 O        -1.339858         1.146622        -2.339989
 H         0.583029         2.975960         0.077184
 H        -0.935025         3.363818        -0.691999
 H        -0.833413         3.086489         0.986977
 H        -2.977846         0.528659         1.175399
 H        -3.119070         1.173112        -0.573690
 H        -2.541683        -1.243980        -1.134373
 H        -1.519934        -1.519400         1.404094
 H        -0.190140        -1.779666         0.117016
 H        -0.042694        -0.101438        -1.523149
 H        -2.278941         0.826065        -2.511442
