19
Iteration:  4142
 C        -0.554357         2.713559         0.172816
 C        -0.840656         1.245240         0.025288
 C        -2.337891         0.873766         0.248592
 C        -1.997174        -0.415658        -0.458355
 C        -1.068776        -1.119480         0.566593
 C        -0.082112         0.144738         0.772400
 O         1.050331         0.161191         1.280157
 C        -0.883462         0.431122        -1.287015
 O        -1.454685         0.911878        -2.466122
 H         0.480881         3.038045        -0.092399
 H        -1.286199         3.291914        -0.369463
 H        -0.607731         2.825791         1.184237
 H        -2.921670         0.839320         1.238106
 H        -3.095470         1.360592        -0.508109
 H        -2.657269        -1.163409        -1.047022
 H        -1.332604        -1.299423         1.637325
 H        -0.696358        -2.032803         0.134724
 H         0.132560        -0.067554        -1.567239
 H        -0.836593         1.562684        -2.793294
