19
Iteration:  4656
 C        -0.413673         2.745291        -0.027310
 C        -0.907634         1.257206         0.000645
 C        -2.357938         0.741067         0.326712
 C        -1.955958        -0.486215        -0.448650
 C        -0.970427        -1.167810         0.534518
 C        -0.099802         0.153894         0.789770
 O         0.951872         0.185957         1.512780
 C        -0.981791         0.455487        -1.343593
 O        -1.467362         1.060954        -2.472708
 H         0.365294         2.765983        -0.803749
 H        -1.261792         3.335097        -0.330724
 H        -0.110344         3.097420         0.912995
 H        -2.803677         0.710792         1.347815
 H        -2.957788         1.399507        -0.215962
 H        -2.675055        -1.128260        -0.992205
 H        -1.403696        -1.706078         1.355644
 H        -0.275463        -1.842189         0.132556
 H        -0.040646         0.011275        -1.586198
 H        -0.813192         1.029913        -3.110035
