19
Iteration:  4306
 C        -0.183806         2.588520        -0.077793
 C        -0.694965         1.171484        -0.102934
 C        -2.232474         0.805915         0.292285
 C        -1.893203        -0.459635        -0.543347
 C        -0.701169        -1.130174         0.369705
 C        -0.055063         0.144643         0.820739
 O         0.584984         0.273719         1.793223
 C        -1.064922         0.343400        -1.405847
 O        -1.841355         1.125116        -2.376526
 H         0.942464         2.698880        -0.063730
 H        -0.517080         3.208835        -0.915426
 H        -0.395867         3.083788         0.823945
 H        -2.652637         0.782899         1.361338
 H        -2.771837         1.657199        -0.290461
 H        -2.591161        -1.345516        -0.694344
 H        -1.139826        -1.692178         1.193420
 H         0.011390        -1.771105        -0.088776
 H        -0.211147        -0.077075        -1.856931
 H        -1.157513         1.513707        -3.025993
