19
Iteration:  4402
 C        -0.451488         2.725972         0.163726
 C        -0.817920         1.253979         0.048784
 C        -2.352863         0.859282         0.255110
 C        -1.974971        -0.448317        -0.459790
 C        -0.993696        -1.043700         0.559460
 C        -0.095229         0.129552         0.823087
 O         0.959343         0.194558         1.349352
 C        -0.923210         0.333319        -1.361674
 O        -1.477199         0.912460        -2.522696
 H         0.426180         3.085757        -0.472664
 H        -1.334797         3.366014        -0.183802
 H        -0.255182         3.156133         1.261627
 H        -2.677158         0.536699         1.196394
 H        -3.201024         1.514581        -0.176639
 H        -2.714009        -1.156909        -0.910891
 H        -1.585164        -1.559839         1.369011
 H        -0.431785        -1.883473         0.095848
 H         0.025036        -0.281129        -1.710856
 H        -1.118505         1.791528        -2.713102
