19
Iteration:  3329charge 0 multiplicity 1
 C        -0.418189         2.667021         0.237567
 C        -0.941001         1.229838        -0.024027
 C        -2.444965         0.699035         0.196985
 C        -1.888352        -0.516792        -0.541230
 C        -0.927686        -1.089282         0.655872
 C        -0.151674         0.201022         0.830024
 O         0.996281         0.249029         1.274002
 C        -0.941111         0.413190        -1.331963
 O        -1.388420         1.041303        -2.497349
 H         0.571634         2.977837        -0.135662
 H        -1.116809         3.348620        -0.323295
 H        -0.542122         3.083859         1.311618
 H        -2.735192         0.537403         1.250694
 H        -3.103422         1.395161        -0.395283
 H        -2.527108        -1.288806        -1.055948
 H        -1.639209        -1.320325         1.487572
 H        -0.355345        -1.978019         0.354061
 H         0.064198         0.002822        -1.601428
 H        -2.244071         1.356377        -2.278444
