19
Iteration:  3981charge 0 multiplicity 1
 C        -0.163116         2.572974        -0.081383
 C        -0.802156         1.224913        -0.102740
 C        -2.217200         0.745462         0.272490
 C        -1.859435        -0.451849        -0.521886
 C        -0.827820        -1.150837         0.366213
 C        -0.068143         0.154240         0.834004
 O         0.659658         0.325575         1.780256
 C        -0.968401         0.403920        -1.409667
 O        -1.820505         1.080362        -2.345377
 H         0.942574         2.479232         0.071342
 H        -0.420190         3.216999        -0.885687
 H        -0.568175         3.081084         0.902972
 H        -2.494675         0.719530         1.322146
 H        -2.995981         1.276273        -0.195177
 H        -2.478349        -1.235572        -1.114296
 H        -1.426162        -1.661662         1.192418
 H        -0.159433        -1.818148        -0.243394
 H        -0.070743        -0.113483        -1.864592
 H        -1.367099         1.589319        -3.081658
