19
Iteration:  4103charge 0 multiplicity 1
 C        -0.260769         2.637018         0.140452
 C        -0.930261         1.282992         0.013255
 C        -2.416734         0.782006         0.160061
 C        -1.885388        -0.553857        -0.493728
 C        -0.931803        -1.093411         0.592177
 C        -0.161346         0.184446         0.854448
 O         0.968175         0.245830         1.366586
 C        -0.910634         0.360145        -1.358228
 O        -1.644441         1.051183        -2.433193
 H         0.798783         2.522891         0.462589
 H        -0.415816         3.431398        -0.601081
 H        -0.902978         3.037863         1.017514
 H        -2.858966         0.784901         1.126528
 H        -2.968082         1.386298        -0.492395
 H        -2.673303        -1.133575        -0.923934
 H        -1.468265        -1.486334         1.463538
 H        -0.197807        -1.851001         0.191693
 H        -0.054666        -0.156054        -1.725272
 H        -0.950675         1.528414        -3.025415
