19
Iteration:  4870charge 0 multiplicity 1
 C        -0.094467         2.572962        -0.062001
 C        -0.735043         1.210388        -0.095050
 C        -2.240666         0.729557         0.180156
 C        -1.794328        -0.568648        -0.530632
 C        -0.763990        -1.135735         0.396037
 C        -0.143947         0.130952         0.799429
 O         0.697410         0.353738         1.755541
 C        -1.056019         0.403628        -1.407229
 O        -1.936821         1.130095        -2.268681
 H        -0.216288         2.977767         1.005347
 H         1.052247         2.570075        -0.247241
 H        -0.477997         3.382421        -0.876774
 H        -2.735318         0.895349         1.274466
 H        -2.953254         1.284482        -0.471625
 H        -2.435034        -1.222751        -0.988244
 H        -1.293718        -1.660288         1.248398
 H        -0.108237        -1.909013        -0.083600
 H        -0.192341         0.036713        -1.962176
 H        -1.358418         1.797899        -2.710104
