19
Iteration:  1742charge 0 multiplicity 1
 C        -0.064369         2.550405        -0.100647
 C        -0.682982         1.222659        -0.154066
 C        -2.030381         0.735677         0.592836
 C        -1.932738        -0.517453        -0.397216
 C        -0.655087        -1.215629         0.189453
 C         0.087570         0.112300         0.529621
 O         0.784694         0.267020         1.478197
 C        -1.273005         0.542734        -1.385596
 O        -2.262864         1.157836        -2.060477
 H         0.671251         2.808025        -0.972712
 H        -0.682963         3.412306        -0.023498
 H         0.714533         2.581848         0.613433
 H        -1.864543         0.700378         1.739914
 H        -2.940728         1.339714         0.391778
 H        -2.703145        -1.196504        -0.732208
 H        -0.874949        -1.823488         1.128284
 H        -0.018496        -1.808759        -0.542470
 H        -0.505614        -0.067776        -1.955445
 H        -2.030151         2.099350        -2.285791
