19
Iteration:  2298
 C        -0.153209         2.630782        -0.232773
 C        -0.715013         1.212055        -0.038278
 C        -2.213321         0.786092         0.407026
 C        -1.882604        -0.566488        -0.510997
 C        -0.645651        -1.167855         0.255819
 C        -0.050821         0.190774         0.790128
 O         0.798993         0.223542         1.664965
 C        -1.134774         0.347359        -1.408739
 O        -2.051353         1.193695        -2.135261
 H        -0.879198         3.469437        -0.059103
 H         0.599781         2.696555         0.534674
 H         0.304790         2.671738        -1.221233
 H        -2.452911         0.642293         1.559826
 H        -2.972298         1.473251        -0.059925
 H        -2.856688        -1.080862        -0.745254
 H        -0.737699        -1.918877         0.996975
 H         0.003368        -1.563128        -0.472917
 H        -0.376355        -0.008450        -2.070966
 H        -1.539640         1.759937        -2.732969
