19
Iteration:  4114charge 0 multiplicity 1
 C        -0.397320         2.669547         0.203545
 C        -0.861836         1.292401         0.061665
 C        -2.356191         0.902948         0.168587
 C        -1.907609        -0.497842        -0.543737
 C        -0.967021        -1.112999         0.563484
 C        -0.143066         0.192241         0.882001
 O         0.975954         0.225411         1.289371
 C        -0.961232         0.283468        -1.369999
 O        -1.582162         0.982015        -2.402322
 H         0.729693         2.751344         0.314629
 H        -0.772211         3.243579        -0.675306
 H        -0.791767         3.132868         1.266250
 H        -2.771221         0.875586         1.132163
 H        -2.987932         1.328508        -0.530494
 H        -2.438642        -1.265830        -1.089514
 H        -1.348737        -1.432737         1.546400
 H        -0.397426        -2.021075         0.192763
 H        -0.092345        -0.134624        -1.799689
 H        -0.773333         1.455090        -2.808321
