19
Iteration:  4529charge 0 multiplicity 1
 C        -0.290539         2.586577        -0.062641
 C        -0.695769         1.184280        -0.066940
 C        -2.249388         0.794757         0.253111
 C        -1.910216        -0.472380        -0.444251
 C        -0.792233        -1.112795         0.418777
 C        -0.049978         0.159415         0.758994
 O         0.711931         0.219325         1.770217
 C        -1.081303         0.423612        -1.431554
 O        -1.741377         1.081781        -2.405623
 H         0.736558         2.770232         0.384286
 H        -0.107803         2.869167        -1.134012
 H        -0.999902         3.281826         0.425074
 H        -2.399697         0.762220         1.424138
 H        -2.964471         1.401769        -0.434010
 H        -2.796510        -1.122964        -0.668533
 H        -1.179422        -1.511167         1.385979
 H        -0.134892        -1.789109        -0.267929
 H        -0.133027        -0.040313        -1.834549
 H        -1.200686         1.805615        -2.876508
