19
Iteration:  1001
 C        -0.093316         2.538880         0.042261
 C        -0.814513         1.220949         0.064586
 C        -2.079986         0.884848         0.743065
 C        -2.026199        -0.467030        -0.163818
 C        -0.750895        -1.130709         0.403818
 C         0.139717         0.067833         0.370742
 O         1.344578         0.103311         0.581545
 C        -1.379530         0.493993        -1.265915
 O        -2.375161         1.160110        -2.004920
 H         0.067318         3.023805         1.111963
 H         0.973698         2.367939        -0.277533
 H        -0.626389         3.203738        -0.604278
 H        -2.062321         0.608792         1.845686
 H        -2.969593         1.557573         0.463815
 H        -2.916969        -1.075858        -0.428668
 H        -0.940973        -1.583980         1.394968
 H        -0.403924        -1.887394        -0.179312
 H        -0.554278         0.219412        -1.984967
 H        -2.499377         2.051684        -1.596415
