19
Iteration:  1509
 C        -0.189291         2.654095        -0.176734
 C        -0.707958         1.111143        -0.046653
 C        -2.077650         0.710808         0.638075
 C        -1.961094        -0.533873        -0.324517
 C        -0.671951        -1.245764         0.129371
 C         0.159406        -0.004646         0.533320
 O         1.022963         0.252961         1.389432
 C        -1.343364         0.494850        -1.334723
 O        -2.210041         1.432062        -2.012181
 H        -0.759192         3.044795        -0.970654
 H        -0.264360         3.151656         0.788032
 H         0.867515         2.651243        -0.403555
 H        -1.949038         0.596323         1.717598
 H        -2.841608         1.516497         0.447697
 H        -2.728913        -1.242402        -0.730203
 H        -0.797554        -2.000650         0.942319
 H        -0.117373        -1.893706        -0.633551
 H        -0.722299        -0.028359        -2.032493
 H        -2.671898         1.028451        -2.834518
