19
Iteration:  2254
 C        -0.078706         2.736038         0.061730
 C        -0.754624         1.203753        -0.107187
 C        -2.132977         0.717728         0.447140
 C        -1.947379        -0.525596        -0.493618
 C        -0.812455        -1.166521         0.380328
 C        -0.003014         0.118299         0.680757
 O         0.885469         0.316819         1.502919
 C        -1.151095         0.352012        -1.424811
 O        -2.050398         1.097694        -2.339585
 H        -0.685904         3.420173        -0.563629
 H        -0.212163         3.010360         1.077506
 H         0.943474         2.645281        -0.246615
 H        -2.212103         0.387455         1.598610
 H        -3.006330         1.452823         0.310852
 H        -2.658071        -1.215271        -1.049358
 H        -1.157780        -1.647164         1.265445
 H        -0.101185        -1.783542        -0.084962
 H        -0.370647        -0.117970        -2.018896
 H        -1.822815         1.997315        -2.106514
