19
Iteration:  1497charge 0 multiplicity 1
 C        -0.154104         2.549111        -0.180975
 C        -0.662330         1.210686        -0.021861
 C        -1.987890         0.683155         0.638225
 C        -1.913855        -0.503591        -0.341114
 C        -0.624417        -1.195357         0.114306
 C         0.167055         0.102686         0.544588
 O         0.956974         0.164773         1.444302
 C        -1.365920         0.462731        -1.407028
 O        -2.331699         1.411090        -1.996537
 H        -0.482426         2.961705        -1.078123
 H        -0.516890         3.245963         0.538445
 H         0.953651         2.556056        -0.192331
 H        -2.163659         0.496722         1.669944
 H        -2.789238         1.343512         0.235781
 H        -2.844217        -1.131348        -0.446135
 H        -0.753735        -1.771409         1.070855
 H        -0.202118        -1.794647        -0.772928
 H        -0.674169         0.162100        -2.187661
 H        -2.517596         1.024554        -2.808533
