19
Iteration:  1824charge 0 multiplicity 1
 C        -0.336524         2.634004        -0.027862
 C        -0.736983         1.171888        -0.003351
 C        -2.144907         0.762250         0.519952
 C        -1.966597        -0.521154        -0.428605
 C        -0.899979        -1.224680         0.412470
 C         0.030137         0.086081         0.663448
 O         1.137242         0.224856         1.156094
 C        -1.145206         0.428277        -1.261448
 O        -2.011785         1.287603        -2.179458
 H        -1.143829         3.292978        -0.093566
 H         0.266119         2.969095         0.878679
 H         0.464508         2.922667        -0.783693
 H        -2.304165         0.587668         1.602715
 H        -2.817231         1.474650         0.042834
 H        -2.747774        -1.142815        -0.922229
 H        -1.204864        -1.460747         1.394509
 H        -0.398494        -2.067613         0.071139
 H        -0.422621         0.061728        -1.923837
 H        -1.773693         1.137368        -3.056041
