19
Iteration:  1463
 C        -0.033487         2.701103        -0.143659
 C        -0.646323         1.200575        -0.095212
 C        -2.010795         0.783302         0.570431
 C        -1.857521        -0.535563        -0.422908
 C        -0.672644        -1.256061         0.126275
 C         0.124826         0.071949         0.564978
 O         0.978880         0.170588         1.446118
 C        -1.314609         0.514385        -1.407052
 O        -2.497008         1.253599        -1.885044
 H         0.491057         2.813352        -1.027126
 H        -0.680744         3.504890         0.068785
 H         0.762337         2.796356         0.660093
 H        -2.173132         0.565365         1.604624
 H        -2.835473         1.379950         0.200566
 H        -2.812103        -1.062134        -0.694975
 H        -0.809473        -2.070487         0.906508
 H        -0.149548        -1.854969        -0.739203
 H        -0.572676         0.172977        -2.098354
 H        -2.494226         1.226566        -2.823615
