19
Iteration:  4172charge 0 multiplicity 1
 C        -0.452984         2.749955         0.080501
 C        -0.869655         1.254017         0.128164
 C        -2.338616         0.755717         0.293460
 C        -1.990232        -0.472515        -0.481477
 C        -1.003756        -1.074939         0.593485
 C        -0.158374         0.211163         0.875985
 O         0.962772         0.137160         1.265414
 C        -0.915588         0.357480        -1.381402
 O        -1.439304         1.011150        -2.496536
 H         0.456388         2.834080        -0.444040
 H        -1.203464         3.469758        -0.257119
 H        -0.246530         2.977903         1.149001
 H        -2.843635         0.545645         1.274541
 H        -3.113641         1.285826        -0.408552
 H        -2.677974        -1.179212        -0.940195
 H        -1.390806        -1.369288         1.563537
 H        -0.348274        -1.824008         0.174054
 H         0.056475        -0.091324        -1.520381
 H        -0.783013         1.612604        -2.872220
