19
Iteration:  4952
 C        -0.473277         2.728203         0.089855
 C        -0.854872         1.222012         0.043242
 C        -2.402290         0.865990         0.306226
 C        -1.963124        -0.444334        -0.432390
 C        -0.880299        -1.118059         0.511784
 C        -0.041576         0.159272         0.864600
 O         1.057488         0.071888         1.285464
 C        -1.038107         0.445161        -1.318029
 O        -1.557665         1.004290        -2.442268
 H        -1.471189         3.165866         0.291459
 H         0.322370         3.027394         0.856141
 H        -0.278321         3.029243        -0.946378
 H        -2.763146         0.809939         1.215782
 H        -2.995510         1.594353        -0.328157
 H        -2.699567        -1.214694        -1.046064
 H        -1.468176        -1.442018         1.426130
 H        -0.254294        -1.939357         0.050312
 H        -0.107410        -0.209401        -1.507581
 H        -0.905478         1.663720        -2.955215
