19
Iteration:  1081
 C        -0.385971         2.750029         0.082383
 C        -0.794936         1.299462         0.175881
 C        -2.147514         0.835182         0.774747
 C        -2.070884        -0.449015        -0.087994
 C        -0.880191        -1.264874         0.532423
 C         0.179404        -0.017139         0.490316
 O         1.409515         0.024978         0.333674
 C        -1.272422         0.466598        -1.197837
 O        -2.056003         1.300496        -2.114870
 H         0.594824         2.785927        -0.289721
 H        -1.128275         3.148985        -0.606835
 H        -0.397872         3.326732         1.006275
 H        -2.197267         0.645236         1.840974
 H        -2.968596         1.448887         0.493441
 H        -2.939465        -0.995760        -0.613321
 H        -0.993659        -1.823266         1.459941
 H        -0.483039        -1.975617        -0.232398
 H        -0.475955         0.025968        -1.796260
 H        -2.657786         0.776831        -2.690882
