19
Iteration:  2432
 C        -0.428723         2.766441         0.226581
 C        -0.918954         1.265387         0.065590
 C        -2.339300         0.723811         0.378907
 C        -1.941388        -0.527438        -0.440524
 C        -0.958256        -1.114414         0.565734
 C        -0.054653         0.248940         0.652861
 O         1.076992         0.162079         1.094242
 C        -1.036812         0.278404        -1.325793
 O        -1.505057         1.123780        -2.366341
 H         0.346902         2.842925         0.964995
 H         0.065836         3.004931        -0.748591
 H        -1.230264         3.474365         0.288577
 H        -2.666180         0.551943         1.498419
 H        -2.899781         1.447078        -0.208126
 H        -2.727857        -1.182238        -0.883082
 H        -1.346479        -1.241294         1.561798
 H        -0.538468        -1.908261         0.068212
 H        -0.119593        -0.129071        -1.724249
 H        -2.357053         0.883492        -2.623319
