19
Iteration:   512charge 0 multiplicity 1
 C        -0.142038         2.525438         0.237050
 C        -0.774202         1.155878         0.126477
 C        -2.066352         0.890681         0.924037
 C        -2.033570        -0.445363         0.025733
 C        -0.697869        -1.167681         0.446315
 C         0.213396        -0.017804         0.229289
 O         1.364754         0.060817        -0.114288
 C        -1.492748         0.546064        -1.180334
 O        -2.355927         1.357400        -1.808934
 H        -0.994111         3.219474         0.279329
 H         0.547777         2.615360         1.101090
 H         0.352703         2.680807        -0.730080
 H        -1.984828         0.749579         2.108511
 H        -2.839020         1.595131         0.525717
 H        -2.944474        -1.001431        -0.062519
 H        -0.697601        -1.453328         1.508412
 H        -0.446987        -2.006697        -0.251432
 H        -0.684541         0.261725        -1.805322
 H        -3.002426         0.816376        -2.308607
