19
Iteration:  1302
 C        -0.246627         2.720243         0.334775
 C        -0.841800         1.267767         0.126732
 C        -2.225630         0.859885         0.542815
 C        -2.003925        -0.486829        -0.271349
 C        -0.793530        -1.206575         0.468427
 C         0.098948         0.098945         0.525994
 O         1.309892         0.154385         0.550470
 C        -1.289088         0.381414        -1.279907
 O        -2.088768         1.155497        -2.117769
 H        -0.182345         2.832395         1.413553
 H         0.772748         2.710287        -0.067825
 H        -0.794724         3.586811        -0.155444
 H        -2.257798         0.716248         1.613866
 H        -3.140668         1.435132         0.308173
 H        -2.859160        -1.139631        -0.592918
 H        -1.157832        -1.546557         1.411877
 H        -0.308056        -1.941562        -0.017702
 H        -0.586790        -0.113676        -1.894517
 H        -1.875385         0.897916        -3.001000
