19
Iteration:  2787charge 0 multiplicity 1
 C        -0.411702         2.597788         0.098401
 C        -0.886756         1.209306         0.094077
 C        -2.357105         0.848857         0.229876
 C        -1.899936        -0.493223        -0.432493
 C        -0.916052        -1.201022         0.476247
 C        -0.098102         0.097537         0.813151
 O         0.959513         0.339668         1.342282
 C        -0.963633         0.325106        -1.354433
 O        -1.526707         1.115933        -2.442329
 H        -0.434013         3.033003         1.139171
 H         0.667068         2.673807        -0.228233
 H        -0.885096         3.281052        -0.618005
 H        -2.781678         1.078016         1.236320
 H        -2.972809         1.557923        -0.321819
 H        -2.563741        -1.151583        -0.892239
 H        -1.323485        -1.656777         1.380727
 H        -0.263229        -1.812486        -0.142453
 H        -0.083065        -0.272655        -1.629963
 H        -2.349908         1.379010        -2.094238
