19
Iteration:  3345charge 0 multiplicity 1
 C        -0.461178         2.776778         0.223161
 C        -0.882194         1.307815         0.077456
 C        -2.374840         0.767152         0.206392
 C        -1.912350        -0.589656        -0.519283
 C        -0.987351        -1.139654         0.550028
 C        -0.088465         0.158541         0.784272
 O         0.943214         0.298378         1.376191
 C        -0.903164         0.296511        -1.413530
 O        -1.457943         1.028118        -2.522954
 H         0.607288         2.620405         0.016002
 H        -0.989347         3.658818        -0.202590
 H        -0.423449         2.851355         1.265517
 H        -2.585259         0.602468         1.267812
 H        -3.228473         1.205619        -0.293540
 H        -2.657275        -1.241381        -0.962552
 H        -1.379962        -1.395475         1.515002
 H        -0.231371        -1.866524         0.233201
 H         0.024430        -0.289424        -1.759357
 H        -2.050663         1.711326        -2.314075
