19
Iteration:  4748
 C        -0.222031         2.574413         0.167897
 C        -0.904134         1.234768        -0.018701
 C        -2.438508         0.736652         0.156650
 C        -1.795198        -0.566175        -0.554675
 C        -1.006256        -1.027513         0.647257
 C        -0.154339         0.257231         0.816119
 O         0.946282         0.250887         1.344782
 C        -0.912121         0.411891        -1.327415
 O        -1.657103         1.017621        -2.396183
 H         0.863622         2.434832         0.487390
 H        -0.373888         3.373601        -0.636924
 H        -0.855470         3.062659         1.046487
 H        -3.040534         0.797479         1.052672
 H        -3.052503         1.306506        -0.620366
 H        -2.334807        -1.283372        -1.208882
 H        -1.604110        -1.201920         1.536793
 H        -0.422533        -1.975946         0.528939
 H         0.037271         0.027723        -1.727847
 H        -1.127090         1.714395        -2.951986
