19
Iteration:   702charge 0 multiplicity 1
 C        -0.094289         2.611020        -0.101513
 C        -0.656114         1.198204        -0.044469
 C        -1.865394         0.782376         0.908040
 C        -2.033769        -0.386490        -0.056481
 C        -0.768821        -1.262165         0.190490
 C         0.216993        -0.016831         0.303041
 O         1.382896         0.071003         0.613314
 C        -1.588017         0.522090        -1.221556
 O        -2.517397         1.393968        -1.792922
 H        -0.969576         3.201833        -0.271452
 H         0.363589         3.011324         0.789940
 H         0.580143         2.728982        -0.978058
 H        -1.685577         0.395781         2.021952
 H        -2.531059         1.658061         0.784986
 H        -3.003800        -0.897244        -0.245668
 H        -0.793061        -1.760291         1.201671
 H        -0.411404        -1.989355        -0.596032
 H        -1.113460        -0.056258        -2.049225
 H        -3.284742         0.906834        -2.194250
