19
Iteration:    69charge 0 multiplicity 1
 C         0.005472         2.541596        -0.231478
 C        -0.641724         1.179792        -0.161966
 C        -1.651964         0.589709         1.015064
 C        -1.913961        -0.434089        -0.049395
 C        -0.629141        -1.211308        -0.254705
 C         0.281322        -0.015648         0.012504
 O         1.393426         0.013948         0.525133
 C        -1.825642         0.652382        -1.136257
 O        -2.939841         1.496610        -1.110478
 H         0.689542         2.644787        -1.116222
 H        -0.722048         3.305356        -0.209567
 H         0.610393         2.610404         0.726914
 H        -1.262456         0.291500         2.030064
 H        -2.562413         1.238078         1.065589
 H        -2.838086        -1.066043        -0.062178
 H        -0.404384        -1.871229         0.501986
 H        -0.534398        -1.731629        -1.252531
 H        -1.460029         0.313310        -2.130743
 H        -2.757173         2.478527        -1.182732
