19
Iteration:  1773
 C        -0.016365         2.565549        -0.030240
 C        -0.648516         1.207892        -0.015519
 C        -2.075312         0.756663         0.515445
 C        -1.964735        -0.492816        -0.424475
 C        -0.631091        -1.169735         0.183735
 C         0.058638         0.098646         0.671086
 O         0.949998         0.251842         1.543905
 C        -1.351866         0.472872        -1.413744
 O        -2.325261         1.202532        -2.175581
 H        -0.219071         2.940635        -1.132642
 H        -0.368343         3.388971         0.590541
 H         1.023490         2.576422         0.175592
 H        -2.133348         0.705518         1.581361
 H        -2.818383         1.396829         0.088176
 H        -2.763642        -1.214842        -0.590340
 H        -0.814708        -2.085287         0.877791
 H         0.100922        -1.629772        -0.612318
 H        -0.753305        -0.008319        -2.252624
 H        -2.189410         1.406546        -3.105245
