19
Iteration:  1238
 C        -0.144788         2.661256        -0.214050
 C        -0.615931         1.207508        -0.086727
 C        -2.041302         0.638555         0.635458
 C        -2.023604        -0.531541        -0.305611
 C        -0.687341        -1.190640         0.262829
 C         0.118198         0.058621         0.520286
 O         1.124248         0.162102         1.182070
 C        -1.405304         0.483841        -1.329150
 O        -2.278184         1.346176        -1.973210
 H        -0.931572         3.336731         0.158855
 H         0.772109         2.833214         0.342580
 H        -0.101734         2.988978        -1.255375
 H        -1.994773         0.433074         1.684974
 H        -2.869216         1.369394         0.595880
 H        -2.925316        -1.135300        -0.411419
 H        -0.592090        -1.915384         1.121989
 H        -0.198054        -1.770748        -0.591799
 H        -0.612291         0.168260        -2.055722
 H        -2.960477         1.641161        -1.399665
