19
Iteration:   799
 C        -0.151535         2.733600         0.209797
 C        -0.748347         1.283207         0.133801
 C        -2.063120         0.761171         0.781805
 C        -2.073921        -0.440892        -0.068651
 C        -0.816392        -1.177806         0.596563
 C         0.194199         0.070367         0.325667
 O         1.396505        -0.057564         0.113623
 C        -1.449946         0.482511        -1.202446
 O        -2.341782         1.187511        -1.996113
 H         0.826342         2.675089         0.615213
 H         0.070669         3.216246        -0.734998
 H        -0.922519         3.548422         0.666985
 H        -2.060272         0.868208         1.943325
 H        -2.922765         1.365100         0.476702
 H        -2.986850        -1.058484        -0.196437
 H        -0.922903        -1.419259         1.581230
 H        -0.451057        -2.038478         0.018494
 H        -0.599354         0.131343        -1.898875
 H        -2.074883         2.084153        -2.371414
