19
Iteration:  4396
 C        -0.412618         2.748458         0.156721
 C        -0.831101         1.257157         0.090299
 C        -2.375386         0.864265         0.218708
 C        -1.968982        -0.447464        -0.496992
 C        -0.949988        -1.071178         0.579984
 C        -0.130205         0.121514         0.822055
 O         0.979133         0.191521         1.381447
 C        -0.953859         0.296917        -1.357119
 O        -1.505605         0.942330        -2.545100
 H         0.406954         3.129145        -0.469026
 H        -1.314078         3.170269        -0.241303
 H        -0.160398         3.099424         1.067853
 H        -2.648869         0.693686         1.361204
 H        -3.098140         1.385622        -0.320195
 H        -2.685196        -1.142845        -0.909404
 H        -1.507457        -1.596606         1.326190
 H        -0.367923        -1.898502         0.179255
 H        -0.016565        -0.137807        -1.482855
 H        -1.185916         1.922694        -2.731315
