19
Iteration:  1406charge 0 multiplicity 1
 C        -0.201276         2.627584         0.046269
 C        -0.788319         1.135913         0.037314
 C        -2.140149         0.730272         0.623897
 C        -1.997197        -0.485841        -0.283479
 C        -0.731591        -1.177310         0.289454
 C         0.110932         0.060634         0.510873
 O         1.233920         0.212453         0.997666
 C        -1.365676         0.445945        -1.298800
 O        -2.164752         1.279348        -2.120727
 H         0.890234         2.709928         0.023408
 H        -0.526597         3.009352        -0.920868
 H        -0.634374         3.172340         0.893662
 H        -2.244819         0.419327         1.660846
 H        -3.007043         1.239620         0.224982
 H        -2.870057        -1.083712        -0.485357
 H        -0.880888        -1.638494         1.312875
 H        -0.426150        -1.956487        -0.537041
 H        -0.550376        -0.024248        -1.946460
 H        -1.972594         2.248942        -2.039840
