19
Iteration:  1436charge 0 multiplicity 1
 C        -0.086149         2.516815        -0.052256
 C        -0.718322         1.130528        -0.106721
 C        -2.055279         0.776680         0.659356
 C        -1.896253        -0.505959        -0.394718
 C        -0.671285        -1.161401         0.227169
 C         0.141225         0.095624         0.503616
 O         1.038916         0.221937         1.286873
 C        -1.321679         0.522471        -1.390549
 O        -2.423167         1.274631        -1.984403
 H         0.965970         2.541667        -0.585805
 H        -0.750316         3.373339        -0.405839
 H         0.057647         2.718657         1.001286
 H        -2.075428         0.410525         1.711786
 H        -2.887821         1.433470         0.354988
 H        -2.718289        -1.120919        -0.701505
 H        -0.760773        -1.799219         1.076080
 H        -0.267420        -1.816911        -0.518362
 H        -0.489750         0.099177        -2.057646
 H        -2.123179         1.733520        -2.728030
