19
Iteration:  2378charge 0 multiplicity 1
 C        -0.221861         2.715883         0.160948
 C        -0.820372         1.257487        -0.027865
 C        -2.361124         0.752149         0.260373
 C        -1.964651        -0.533335        -0.488778
 C        -0.784571        -1.127753         0.402736
 C        -0.045914         0.155917         0.743468
 O         1.015376         0.247303         1.357029
 C        -1.075481         0.316107        -1.342611
 O        -1.770494         1.137867        -2.272847
 H        -0.239816         3.011603         1.184509
 H         0.744830         2.766931        -0.353059
 H        -0.897290         3.296138        -0.436595
 H        -2.770590         0.835899         1.394606
 H        -3.068174         1.328860        -0.364244
 H        -2.794550        -1.107142        -0.807370
 H        -1.117430        -1.526747         1.373254
 H        -0.247774        -1.852292        -0.168940
 H        -0.156710        -0.067343        -1.730134
 H        -2.549445         0.728893        -2.606600
