19
Iteration:  3041charge 0 multiplicity 1
 C        -0.449225         2.561135         0.168795
 C        -0.958911         1.250606         0.134001
 C        -2.430762         0.843579         0.153358
 C        -1.963099        -0.479243        -0.462561
 C        -0.942121        -1.039461         0.512461
 C        -0.146352         0.273472         0.855884
 O         1.020398         0.284329         1.254305
 C        -0.922325         0.262105        -1.361446
 O        -1.350626         1.015430        -2.427415
 H         0.540258         2.365784        -0.365497
 H        -1.110349         3.463618        -0.161184
 H        -0.152413         2.878029         1.224696
 H        -3.075787         0.560075         1.031439
 H        -2.982569         1.572847        -0.403841
 H        -2.672102        -1.246641        -0.728677
 H        -1.291033        -1.463772         1.479475
 H        -0.348733        -1.842920         0.026572
 H         0.052228        -0.174254        -1.738225
 H        -2.380264         1.040292        -2.277354
