19
Iteration:  4427charge 0 multiplicity 1
 C        -0.454053         2.648962         0.198475
 C        -0.890346         1.251940         0.010333
 C        -2.316653         0.908611         0.295654
 C        -1.979381        -0.477450        -0.497592
 C        -0.976074        -1.111809         0.564092
 C        -0.113661         0.142892         0.713824
 O         0.957356         0.248054         1.303125
 C        -0.937286         0.367802        -1.278770
 O        -1.451778         0.932768        -2.470516
 H         0.621972         3.011775        -0.121034
 H        -1.193636         3.327447        -0.343605
 H        -0.650731         2.982554         1.240789
 H        -2.578560         0.818881         1.312616
 H        -3.133297         1.368704        -0.171038
 H        -2.742584        -0.979560        -1.101448
 H        -1.671851        -1.358546         1.345258
 H        -0.495556        -2.018630         0.298521
 H         0.091773        -0.099873        -1.541588
 H        -0.793885         1.288139        -2.987668
