19
Iteration:  3788
 C        -0.250308         2.589189         0.036405
 C        -0.792384         1.215852        -0.077057
 C        -2.233611         0.873065         0.197081
 C        -1.868552        -0.527971        -0.458647
 C        -0.884945        -1.169475         0.407454
 C        -0.149933         0.108253         0.824683
 O         0.732679         0.317719         1.633667
 C        -0.943331         0.392777        -1.379377
 O        -1.734166         1.040501        -2.383674
 H         0.265394         2.943902        -0.896618
 H        -1.131049         3.305529         0.157524
 H         0.491642         2.781380         0.927136
 H        -2.532456         0.927863         1.201646
 H        -2.949785         1.385146        -0.381415
 H        -2.674389        -1.157014        -0.916876
 H        -1.266541        -1.527976         1.366522
 H        -0.058697        -1.790580         0.025060
 H         0.018929         0.065066        -1.790997
 H        -1.147541         1.561829        -2.959018
