19
Iteration:  3017
 C        -0.417007         2.753455         0.115875
 C        -0.894773         1.308385         0.085085
 C        -2.437365         0.799953         0.172630
 C        -1.925616        -0.538759        -0.494139
 C        -0.973318        -1.208626         0.593467
 C        -0.116356         0.151742         0.843870
 O         0.988480         0.238310         1.234351
 C        -0.968644         0.460147        -1.209560
 O        -1.370389         0.981588        -2.483902
 H         0.693877         2.699635         0.037204
 H        -0.989337         3.480009        -0.561628
 H        -0.643936         3.133745         1.085274
 H        -2.854563         0.741996         1.142731
 H        -3.230891         1.139754        -0.401122
 H        -2.549212        -1.120357        -1.090496
 H        -1.308119        -1.413126         1.630240
 H        -0.346455        -2.094829         0.293286
 H        -0.043141        -0.095684        -1.671568
 H        -2.278517         1.304879        -2.435044
