19
Iteration:  2977charge 0 multiplicity 1
 C        -0.471853         2.689174         0.074641
 C        -0.814453         1.211912         0.011633
 C        -2.323103         0.759359         0.208127
 C        -1.945905        -0.491945        -0.502423
 C        -0.896038        -1.108289         0.528581
 C        -0.080940         0.192120         0.842023
 O         0.971242         0.212320         1.454702
 C        -1.014126         0.327341        -1.374116
 O        -1.482173         1.072562        -2.470123
 H         0.486911         2.890904         0.619250
 H        -0.564913         3.133523        -0.953912
 H        -1.332645         3.218784         0.606411
 H        -2.636734         0.410231         1.266758
 H        -2.892470         1.650892        -0.256057
 H        -2.691511        -1.123277        -1.041121
 H        -1.442894        -1.271623         1.477788
 H        -0.334935        -2.012231         0.290844
 H        -0.127768        -0.157147        -1.646914
 H        -2.189602         1.751641        -2.252201
