19
Iteration:  2832
 C        -0.323082         2.603661        -0.044578
 C        -0.892718         1.197857        -0.001921
 C        -2.236441         0.770147         0.410425
 C        -1.874981        -0.479197        -0.445981
 C        -0.767809        -1.156876         0.427453
 C        -0.096828         0.112029         0.792071
 O         0.750572         0.243330         1.618339
 C        -0.962375         0.494512        -1.453515
 O        -1.631988         1.108113        -2.519729
 H         0.341061         2.781109         0.851376
 H         0.273629         2.796956        -1.015437
 H        -0.962938         3.446727        -0.212172
 H        -2.638515         0.516833         1.445445
 H        -3.143216         1.182222        -0.040783
 H        -2.640285        -1.035456        -0.849959
 H        -1.241561        -1.518642         1.339724
 H        -0.140866        -1.992956         0.116194
 H        -0.022673         0.055488        -1.756725
 H        -2.343655         1.650183        -2.331490
