19
Iteration:   968charge 0 multiplicity 1
 C         0.060442         2.636223        -0.086197
 C        -0.654722         1.189336        -0.119169
 C        -1.964604         0.772718         0.783966
 C        -2.052586        -0.458471        -0.126691
 C        -0.721789        -1.213633         0.229606
 C         0.212667         0.031275         0.384205
 O         1.278244         0.142192         0.964088
 C        -1.550894         0.520974        -1.314277
 O        -2.548141         1.258863        -2.014391
 H        -0.597147         3.366127         0.552441
 H         1.136188         2.624840         0.197034
 H         0.073912         3.098808        -1.083328
 H        -1.940071         0.473873         1.894942
 H        -2.838679         1.528587         0.706322
 H        -2.889465        -1.166687        -0.230405
 H        -0.682206        -2.011865         0.995018
 H        -0.373634        -1.594797        -0.656384
 H        -0.778276         0.138096        -2.024915
 H        -3.215594         1.397168        -1.245034
