19
Iteration:  4906charge 0 multiplicity 1
 C        -0.209264         2.565122         0.097596
 C        -0.773202         1.179624        -0.050325
 C        -2.285372         0.769900         0.305960
 C        -1.879948        -0.474599        -0.500522
 C        -0.871308        -1.092849         0.376887
 C        -0.126006         0.149907         0.768136
 O         0.866843         0.367334         1.589180
 C        -1.045642         0.379412        -1.385083
 O        -1.814952         1.030006        -2.422412
 H        -0.894283         3.097269         0.833634
 H         0.786915         2.441389         0.665809
 H        -0.087950         3.257700        -0.812922
 H        -2.413339         0.681143         1.330357
 H        -3.042971         1.310941        -0.193568
 H        -2.681528        -1.077874        -0.969713
 H        -1.389883        -1.625152         1.256623
 H        -0.102101        -1.804295        -0.042565
 H        -0.070602         0.055467        -1.859357
 H        -1.129587         1.599247        -2.894354
