19
Iteration:   982charge 0 multiplicity 1
 C         0.018862         2.592611        -0.027573
 C        -0.684545         1.265964        -0.092110
 C        -2.101683         0.768729         0.800113
 C        -1.985835        -0.417338        -0.163969
 C        -0.733464        -1.137210         0.228498
 C         0.149361         0.084912         0.424950
 O         1.314485         0.107919         0.791561
 C        -1.463417         0.476033        -1.257731
 O        -2.472223         1.165793        -1.972005
 H        -0.333330         3.077501         0.857863
 H         1.080295         2.371398         0.099690
 H        -0.099543         3.215431        -0.848391
 H        -1.936145         0.723021         1.861453
 H        -2.901258         1.462003         0.599140
 H        -2.959450        -0.930747        -0.404077
 H        -0.827410        -1.711829         1.207351
 H        -0.335184        -1.878583        -0.521296
 H        -0.992915        -0.077384        -2.056936
 H        -3.040393         1.774397        -1.538634
