19
Iteration:  3922
 C        -0.303719         2.652761         0.100400
 C        -0.856099         1.249202         0.002957
 C        -2.402593         0.805122         0.230670
 C        -2.006030        -0.499405        -0.582615
 C        -0.954437        -1.163140         0.552619
 C        -0.101744         0.132692         0.807584
 O         0.910196         0.301258         1.456526
 C        -0.880416         0.415681        -1.343455
 O        -1.568588         0.983953        -2.429729
 H         0.478303         2.976079        -0.708381
 H        -1.255157         3.407902         0.027337
 H         0.100330         2.795928         1.099864
 H        -2.571038         0.622993         1.247446
 H        -3.108859         1.561714        -0.219969
 H        -2.427252        -1.204393        -1.207856
 H        -1.455839        -1.462698         1.467060
 H        -0.471648        -2.105934         0.294751
 H         0.044511        -0.046234        -1.608848
 H        -1.212268         1.783347        -2.708719
