19
Iteration:  3730
 C        -0.189214         2.632185        -0.145869
 C        -0.781286         1.198655        -0.147568
 C        -2.276685         0.833910         0.337928
 C        -1.841224        -0.476244        -0.428972
 C        -0.788773        -1.226842         0.407002
 C        -0.075029         0.061332         0.793413
 O         0.612947         0.317266         1.766041
 C        -0.984068         0.440770        -1.374252
 O        -1.763185         1.082563        -2.445102
 H         0.677414         2.606224        -0.797453
 H        -0.867996         3.323228        -0.548363
 H         0.102706         2.869717         1.024098
 H        -2.547830         0.440829         1.402072
 H        -3.125707         1.346953        -0.211779
 H        -2.648378        -1.112853        -0.958839
 H        -0.978592        -1.828289         1.311124
 H         0.108074        -1.660205        -0.072228
 H        -0.133612         0.054942        -1.881745
 H        -1.435144         2.007694        -2.362906
