19
Iteration:  4627charge 0 multiplicity 1
 C        -0.294587         2.556455         0.021706
 C        -0.808507         1.184093        -0.025256
 C        -2.280948         0.795882         0.155461
 C        -1.907534        -0.522300        -0.548312
 C        -0.886554        -1.116665         0.481211
 C        -0.127108         0.171612         0.845497
 O         0.812938         0.348382         1.560864
 C        -0.970391         0.362370        -1.394406
 O        -1.678815         1.106672        -2.246893
 H         0.712338         2.734402        -0.503645
 H        -1.033588         3.111580        -0.643819
 H        -0.080233         2.945222         1.073750
 H        -2.680268         0.779595         1.140768
 H        -2.791227         1.548515        -0.517096
 H        -2.613548        -1.214734        -1.101810
 H        -1.487591        -1.543073         1.314864
 H        -0.117729        -1.873957         0.146879
 H        -0.051400        -0.064197        -1.933201
 H        -1.175883         1.133420        -3.084802
