19
Iteration:   385
 C        -0.033748         2.564193        -0.271406
 C        -0.717870         1.182847        -0.177308
 C        -1.693070         0.717727         0.963242
 C        -1.949660        -0.391176        -0.067188
 C        -0.628314        -1.323771         0.000183
 C         0.319627        -0.035499         0.156620
 O         1.409140         0.050592         0.711409
 C        -1.739875         0.585765        -1.241056
 O        -2.864357         1.463726        -1.424275
 H         0.652507         2.693529         0.583383
 H         0.400166         2.467725        -1.218083
 H        -0.853497         3.421285        -0.347477
 H        -1.385916         0.484934         1.914241
 H        -2.529419         1.363453         1.096568
 H        -2.946606        -0.913309         0.084993
 H        -0.739250        -2.016577         0.806104
 H        -0.418400        -1.885694        -1.000879
 H        -1.494391         0.179815        -2.290198
 H        -2.572253         2.386201        -1.251535
