19
Iteration:  2370
 C        -0.214295         2.700138         0.105293
 C        -0.759225         1.265050        -0.094432
 C        -2.351252         0.726509         0.299006
 C        -1.981920        -0.536314        -0.463160
 C        -0.809707        -1.191428         0.389777
 C        -0.023754         0.209007         0.747922
 O         0.987737         0.264600         1.422365
 C        -1.097144         0.331787        -1.382376
 O        -1.803340         1.164805        -2.240540
 H        -0.407036         3.091087         1.125959
 H         0.886606         2.861373        -0.065367
 H        -0.839952         3.418879        -0.543171
 H        -2.725584         0.624008         1.406539
 H        -2.936507         1.511872        -0.281411
 H        -2.746303        -1.133915        -0.955899
 H        -1.009526        -1.802962         1.342105
 H        -0.110703        -1.977429        -0.192698
 H        -0.215896        -0.303863        -1.877628
 H        -2.468984         0.801408        -2.756954
