19
Iteration:  4938charge 0 multiplicity 1
 C        -0.468086         2.734972         0.087062
 C        -0.887724         1.293167         0.026391
 C        -2.316391         0.839752         0.341835
 C        -1.942038        -0.451124        -0.408081
 C        -0.940311        -1.130183         0.463348
 C        -0.029199         0.083480         0.766850
 O         0.978436         0.139844         1.370960
 C        -0.971749         0.397759        -1.307509
 O        -1.607021         0.994952        -2.497376
 H        -1.226604         3.461700         0.521641
 H         0.453487         2.816198         0.778232
 H        -0.024700         3.232648        -0.869239
 H        -2.577186         0.830031         1.476862
 H        -3.076197         1.352931        -0.221060
 H        -2.733736        -1.033568        -0.786307
 H        -1.252152        -1.710529         1.399126
 H        -0.316706        -1.909094        -0.031682
 H        -0.037154         0.049963        -1.697555
 H        -0.959835         1.541772        -2.859243
