19
Iteration:  4437
 C        -0.419936         2.700208         0.212140
 C        -0.846185         1.233110         0.065987
 C        -2.396645         0.867470         0.248167
 C        -1.936506        -0.475884        -0.454182
 C        -0.996115        -1.129188         0.555570
 C        -0.128296         0.103591         0.790845
 O         0.946341         0.271847         1.279273
 C        -0.944000         0.387971        -1.352180
 O        -1.479137         0.978563        -2.479583
 H         0.730722         2.816651        -0.044145
 H        -1.018231         3.234982        -0.608894
 H        -0.656477         3.100120         1.253129
 H        -2.697881         0.673713         1.207530
 H        -3.064415         1.574023        -0.267682
 H        -2.658756        -1.210383        -0.861332
 H        -1.441071        -1.352131         1.548718
 H        -0.373860        -1.918597         0.196671
 H        -0.047895        -0.274923        -1.674592
 H        -0.706606         1.113210        -3.014984
