19
Iteration:  4583
 C        -0.126866         2.550362        -0.018023
 C        -0.761593         1.187662        -0.022883
 C        -2.206894         0.755381         0.304269
 C        -1.806092        -0.524706        -0.601215
 C        -0.839776        -1.102535         0.434647
 C        -0.090017         0.177948         0.758807
 O         0.660539         0.359295         1.778636
 C        -1.015047         0.424493        -1.442470
 O        -1.902036         1.059022        -2.436775
 H         0.969344         2.338068         0.334499
 H        -0.140533         3.028847        -1.037227
 H        -0.462210         3.115383         0.898888
 H        -2.598306         0.606422         1.326533
 H        -2.872388         1.396579        -0.321626
 H        -2.643493        -1.159681        -1.018569
 H        -1.212572        -1.516415         1.400434
 H        -0.070477        -1.876167         0.105851
 H        -0.021970         0.003722        -1.827353
 H        -1.420253         1.760375        -2.949353
