19
Iteration:  4536
 C        -0.264714         2.653958        -0.068368
 C        -0.711636         1.204625        -0.065019
 C        -2.218995         0.840888         0.243033
 C        -1.933947        -0.511724        -0.400868
 C        -0.722932        -1.126835         0.365452
 C        -0.050875         0.158841         0.804152
 O         0.645502         0.208242         1.736669
 C        -1.079176         0.411356        -1.391431
 O        -1.761974         1.044953        -2.416165
 H         0.765371         2.711707         0.466616
 H        -0.112094         2.854056        -1.170388
 H        -0.881733         3.356825         0.469260
 H        -2.370336         0.921781         1.249398
 H        -2.862757         1.391620        -0.303159
 H        -2.682026        -1.168817        -0.816947
 H        -1.063610        -1.687059         1.214145
 H        -0.349801        -1.867268        -0.274338
 H        -0.103852        -0.003106        -1.781939
 H        -1.176116         1.872017        -2.681171
