19
Iteration:  2861
 C        -0.254655         2.687827        -0.041885
 C        -0.720653         1.144722        -0.133978
 C        -2.268784         0.805885         0.261407
 C        -1.943944        -0.510281        -0.496669
 C        -0.805480        -1.128789         0.334562
 C        -0.045794         0.128335         0.837576
 O         0.742404         0.318560         1.777486
 C        -0.986347         0.332201        -1.446100
 O        -1.728072         1.084473        -2.356900
 H         0.478799         2.766184         0.819136
 H         0.291246         3.190662        -0.864579
 H        -1.079296         3.447126         0.239351
 H        -2.694927         0.558346         1.194426
 H        -3.024779         1.369520        -0.252633
 H        -2.588609        -1.191341        -1.203416
 H        -1.156174        -1.809233         1.175425
 H        -0.033044        -1.618275        -0.350274
 H        -0.150201        -0.337609        -1.956320
 H        -2.439331         1.668079        -1.968264
