19
Iteration:   574charge 0 multiplicity 1
 C        -0.253350         2.535813        -0.135229
 C        -0.668626         1.156115        -0.011854
 C        -1.892668         0.817239         0.917204
 C        -2.032530        -0.453004        -0.086613
 C        -0.681332        -1.215392         0.179193
 C         0.263234        -0.073186         0.203422
 O         1.445309        -0.002375         0.539855
 C        -1.579658         0.575762        -1.179842
 O        -2.544225         1.516061        -1.616729
 H         0.319182         2.871421         0.785177
 H         0.456822         2.665452        -1.051073
 H        -1.092274         3.207143        -0.304451
 H        -1.730406         0.661810         1.930807
 H        -2.627474         1.600300         0.808066
 H        -2.911398        -1.117279        -0.189900
 H        -0.644085        -1.953765         1.042316
 H        -0.550153        -1.823518        -0.666233
 H        -0.908211         0.404361        -2.078519
 H        -3.064251         1.159938        -2.355462
