19
Iteration:  2521
 C        -0.264375         2.637026         0.068423
 C        -0.836645         1.205742         0.023293
 C        -2.288440         0.785313         0.267268
 C        -1.906857        -0.564930        -0.417365
 C        -0.774914        -1.209613         0.467918
 C        -0.075170         0.101411         0.817569
 O         0.956406         0.297889         1.448042
 C        -1.089178         0.444641        -1.431113
 O        -1.763112         1.145588        -2.451980
 H         0.694155         2.676875        -0.457659
 H        -0.987636         3.332810        -0.403947
 H        -0.157066         3.028943         1.113650
 H        -2.588657         0.662774         1.398727
 H        -2.975270         1.418060        -0.350491
 H        -2.730760        -1.196594        -0.795792
 H        -1.206110        -1.638689         1.383091
 H        -0.299016        -1.993004        -0.092525
 H        -0.166457        -0.004435        -1.805531
 H        -2.318776         1.833403        -2.150622
