19
Iteration:  1427
 C        -0.138763         2.582063        -0.017059
 C        -0.752425         1.185060        -0.106255
 C        -2.081388         0.729623         0.671388
 C        -1.936783        -0.522494        -0.345714
 C        -0.701968        -1.213837         0.263189
 C         0.090371         0.116484         0.527055
 O         1.127321         0.215027         1.204511
 C        -1.333884         0.435883        -1.375273
 O        -2.336072         1.298405        -2.056764
 H         0.966508         2.431731        -0.286298
 H        -0.529171         3.376002        -0.691872
 H        -0.116065         2.644144         1.072041
 H        -1.900918         0.527255         1.749106
 H        -2.886290         1.441742         0.487456
 H        -2.759555        -1.158012        -0.573351
 H        -0.961699        -1.813408         1.160186
 H         0.012773        -1.649088        -0.555570
 H        -0.701136         0.201474        -2.309725
 H        -2.015145         2.042299        -2.491852
