19
Iteration:  1252
 C        -0.171119         2.645063        -0.108087
 C        -0.769069         1.201243        -0.035631
 C        -2.106535         0.723983         0.701081
 C        -1.921605        -0.505593        -0.263107
 C        -0.761139        -1.249783         0.264718
 C         0.131883         0.059659         0.538587
 O         1.231181         0.182704         1.066379
 C        -1.308571         0.523481        -1.322050
 O        -2.305386         1.269531        -2.088558
 H        -0.760562         3.326696         0.585900
 H         0.883944         2.694546         0.241114
 H        -0.131134         2.946558        -1.127879
 H        -2.072359         0.556860         1.815465
 H        -2.990983         1.279575         0.372649
 H        -2.755980        -1.074623        -0.592126
 H        -1.144260        -1.816221         1.183030
 H        -0.134554        -1.947635        -0.518926
 H        -0.664871         0.029562        -2.131344
 H        -2.644174         2.004130        -1.455374
