19
Iteration:  1995charge 0 multiplicity 1
 C        -0.131289         2.685457        -0.234033
 C        -0.738267         1.248293        -0.070032
 C        -2.140089         0.638868         0.544147
 C        -1.911228        -0.640026        -0.365494
 C        -0.637402        -1.247987         0.280599
 C        -0.004452         0.126492         0.711588
 O         0.834175         0.185190         1.590055
 C        -1.223083         0.510468        -1.363229
 O        -2.073168         1.377754        -2.224345
 H         1.009362         2.796296         0.082853
 H         0.018826         2.896970        -1.371007
 H        -0.724125         3.582949         0.165838
 H        -2.185717         0.506013         1.565234
 H        -3.016841         1.149469         0.130164
 H        -2.705735        -1.371466        -0.551946
 H        -0.907349        -1.802530         1.259087
 H         0.092317        -1.579710        -0.558998
 H        -0.615927         0.004159        -2.094492
 H        -2.198020         0.971413        -3.170580
