19
Iteration:  4705charge 0 multiplicity 1
 C        -0.492702         2.696359         0.137847
 C        -0.842281         1.217590         0.071796
 C        -2.349174         0.862739         0.192568
 C        -2.040425        -0.451005        -0.483473
 C        -1.032692        -1.097457         0.485050
 C        -0.075658         0.118431         0.813959
 O         1.011518         0.281849         1.265240
 C        -0.953750         0.359563        -1.198156
 O        -1.415284         0.914820        -2.448598
 H         0.443268         2.864204        -0.432744
 H        -1.393208         3.278907        -0.200768
 H        -0.444096         2.956937         1.264586
 H        -2.734727         0.845112         1.147973
 H        -3.060992         1.550860        -0.331760
 H        -2.749827        -1.076461        -1.029229
 H        -1.537292        -1.359497         1.449206
 H        -0.497201        -2.064716         0.240793
 H         0.042948        -0.141395        -1.445610
 H        -0.633481         1.530071        -2.639983
