19
Iteration:   526
 C        -0.209758         2.640247         0.169983
 C        -0.755864         1.225624         0.123731
 C        -1.985622         0.774318         0.889949
 C        -2.007520        -0.418341        -0.032345
 C        -0.753019        -1.182443         0.405056
 C         0.237259         0.031660         0.244595
 O         1.412480        -0.063043        -0.016549
 C        -1.457051         0.540656        -1.102966
 O        -2.428776         1.388969        -1.811485
 H        -0.822794         3.359510         0.729688
 H         0.751457         2.599080         0.636529
 H         0.025919         3.130314        -0.900719
 H        -1.985297         0.758043         2.005848
 H        -2.853786         1.407048         0.643718
 H        -2.924120        -1.010737        -0.225015
 H        -0.858064        -1.405803         1.452057
 H        -0.379387        -2.181401        -0.069300
 H        -0.885662         0.014654        -1.879435
 H        -3.099501         0.787592        -2.221736
