19
Iteration:  1476
 C        -0.039156         2.626828        -0.194062
 C        -0.715916         1.295825        -0.202605
 C        -2.043767         0.745752         0.617746
 C        -1.882620        -0.505476        -0.385359
 C        -0.591497        -1.175250         0.153559
 C         0.113563         0.023536         0.612458
 O         0.945770         0.097447         1.457887
 C        -1.306537         0.496631        -1.400347
 O        -2.437086         1.298534        -1.898025
 H         0.046562         3.084906        -1.132883
 H        -0.760097         3.262333         0.300359
 H         0.846419         2.507255         0.431099
 H        -1.832996         0.579401         1.691445
 H        -2.834966         1.492248         0.420438
 H        -2.583634        -1.277487        -0.808442
 H        -0.680013        -1.920535         0.971076
 H         0.038439        -1.524123        -0.715543
 H        -0.815573         0.257706        -2.266183
 H        -2.463850         1.122348        -2.916521
