19
Iteration:  1225charge 0 multiplicity 1
 C        -0.205176         2.588548        -0.276223
 C        -0.711241         1.132594        -0.165713
 C        -1.991990         0.720499         0.713885
 C        -1.955463        -0.512395        -0.295336
 C        -0.626351        -1.170759         0.143106
 C         0.172961         0.114787         0.499174
 O         1.074719         0.126218         1.312476
 C        -1.403236         0.434610        -1.347853
 O        -2.281817         1.438406        -1.889744
 H        -0.931429         3.321771        -0.073617
 H         0.660041         2.756306         0.362572
 H         0.205463         2.696311        -1.332328
 H        -1.850967         0.443432         1.730116
 H        -2.731853         1.498510         0.530887
 H        -2.814498        -1.177200        -0.639377
 H        -0.770608        -1.727000         1.045851
 H        -0.122052        -1.699694        -0.574611
 H        -0.945394        -0.032222        -2.191933
 H        -3.216501         1.209707        -1.535981
