19
Iteration:   852charge 0 multiplicity 1
 C        -0.036252         2.618061        -0.062364
 C        -0.693035         1.222715        -0.069808
 C        -1.986525         0.826340         0.828346
 C        -2.026261        -0.407178        -0.113135
 C        -0.761916        -1.248389         0.254965
 C         0.173161         0.010850         0.357664
 O         1.337975         0.130573         0.680574
 C        -1.486955         0.456075        -1.248386
 O        -2.554163         1.237438        -1.853745
 H         0.808620         2.689303        -0.751596
 H        -0.740227         3.441059        -0.282708
 H         0.443195         2.753285         1.044923
 H        -1.751507         0.640245         1.847208
 H        -2.774982         1.555646         0.764338
 H        -2.920896        -1.050074        -0.299716
 H        -0.718675        -1.789220         1.220612
 H        -0.545993        -1.960019        -0.603807
 H        -0.822541        -0.001048        -2.009207
 H        -2.191226         2.098898        -2.207658
