19
Iteration:  2355
 C        -0.273463         2.637204         0.004238
 C        -0.730264         1.167065        -0.097955
 C        -2.215546         0.760782         0.364144
 C        -1.894566        -0.539860        -0.452253
 C        -0.816933        -1.170938         0.375550
 C        -0.000834         0.100364         0.729881
 O         0.903066         0.320739         1.514435
 C        -1.102228         0.378911        -1.395996
 O        -1.876705         1.260748        -2.259741
 H        -0.760278         2.968630         0.905742
 H         0.823634         2.578009         0.106292
 H        -0.533333         3.225487        -0.852338
 H        -2.369468         0.683825         1.587523
 H        -3.048239         1.330248        -0.047001
 H        -2.723412        -1.194805        -0.741877
 H        -1.203192        -1.734355         1.216769
 H        -0.202085        -1.733942        -0.295911
 H        -0.287163        -0.031680        -1.986912
 H        -2.186290         0.625257        -2.960657
