19
Iteration:   189
 C        -0.024572         2.528348         0.272851
 C        -0.692724         1.188182         0.121521
 C        -1.914605         0.735088         1.066266
 C        -1.980270        -0.407362         0.014505
 C        -0.692145        -1.130160         0.270777
 C         0.274412         0.040181         0.100291
 O         1.423115         0.022373        -0.238676
 C        -1.644811         0.568522        -1.183395
 O        -2.715487         1.328426        -1.609525
 H         0.082975         2.668435         1.363167
 H         0.898953         2.568346        -0.160044
 H        -0.784272         3.240960        -0.137034
 H        -1.682369         0.432372         2.108661
 H        -2.807019         1.381674         0.946539
 H        -2.932153        -1.028133        -0.085434
 H        -0.654873        -1.502121         1.232103
 H        -0.524788        -1.990671        -0.450246
 H        -1.036751         0.232836        -1.978581
 H        -2.269438         2.119408        -1.928065
