19
Iteration:  2548charge 0 multiplicity 1
 C        -0.240403         2.573610         0.038946
 C        -0.766511         1.173111        -0.094855
 C        -2.238228         0.784852         0.339038
 C        -1.949501        -0.497398        -0.485890
 C        -0.789657        -1.152138         0.343872
 C        -0.019075         0.155856         0.778728
 O         0.846090         0.362477         1.616351
 C        -1.066796         0.403970        -1.459924
 O        -1.786201         1.073706        -2.359098
 H         0.411045         2.865862        -0.812141
 H        -1.034809         3.295745         0.230451
 H         0.256403         2.543581         0.985978
 H        -2.333736         0.657905         1.406724
 H        -2.907056         1.569627        -0.118829
 H        -2.813992        -1.041347        -0.906625
 H        -1.107540        -1.716913         1.256763
 H        -0.314326        -1.810585        -0.437881
 H        -0.234982        -0.170935        -1.920161
 H        -2.510030         1.539270        -1.986633
