19
Iteration:  2498charge 0 multiplicity 1
 C        -0.355306         2.656852         0.069434
 C        -0.874541         1.256000        -0.061422
 C        -2.361153         0.717208         0.392320
 C        -1.909068        -0.519879        -0.436899
 C        -0.860953        -1.034760         0.497763
 C        -0.064151         0.173753         0.718431
 O         0.990167         0.174661         1.311159
 C        -1.012703         0.385383        -1.347201
 O        -1.636985         1.101124        -2.382148
 H         0.724579         2.531171         0.025107
 H        -0.701433         3.312794        -0.786186
 H        -0.724225         3.151681         0.998388
 H        -2.481839         0.361970         1.488087
 H        -3.190125         1.287359        -0.037394
 H        -2.471687        -1.206115        -1.131930
 H        -1.432664        -1.385357         1.355638
 H        -0.265940        -1.838309         0.089377
 H         0.016009         0.038329        -1.580385
 H        -2.335661         1.728584        -1.951634
