19
Iteration:   594
 C        -0.080422         2.548350        -0.293329
 C        -0.687045         1.174824        -0.113147
 C        -1.880533         0.649581         0.912649
 C        -2.000464        -0.477783        -0.051967
 C        -0.686982        -1.249090         0.024254
 C         0.239551         0.014172         0.286854
 O         1.388787         0.094758         0.730981
 C        -1.652149         0.503776        -1.192432
 O        -2.565058         1.599147        -1.540858
 H         0.894057         2.551150         0.262835
 H         0.040741         2.844453        -1.371780
 H        -0.804335         3.327529         0.192951
 H        -1.721546         0.474560         1.930673
 H        -2.685515         1.371360         0.906639
 H        -3.012295        -0.961896        -0.036481
 H        -0.700293        -2.014168         0.855747
 H        -0.402726        -1.870036        -0.863083
 H        -1.360524        -0.027894        -2.120078
 H        -2.926427         1.259281        -2.340329
