19
Iteration:  2807
 C        -0.284573         2.673225         0.029711
 C        -0.806546         1.214409         0.028360
 C        -2.348001         0.685990         0.321104
 C        -2.002900        -0.556777        -0.504958
 C        -0.902230        -1.148348         0.427473
 C        -0.082470         0.221940         0.795011
 O         0.914799         0.300013         1.496935
 C        -1.074395         0.402576        -1.400262
 O        -1.500447         1.099679        -2.430403
 H        -0.044994         2.979409         1.093979
 H         0.586472         2.937473        -0.620663
 H        -1.080133         3.384656        -0.380476
 H        -2.543020         0.468545         1.358027
 H        -3.120302         1.370239        -0.025329
 H        -2.844410        -1.204859        -0.834475
 H        -1.394332        -1.627353         1.320583
 H        -0.092106        -1.845453         0.086711
 H        -0.157139        -0.212624        -1.723027
 H        -2.390427         1.451878        -2.368731
