19
Iteration:  2044charge 0 multiplicity 1
 C        -0.170564         2.678601        -0.112609
 C        -0.577012         1.176564        -0.110427
 C        -2.102337         0.713431         0.404508
 C        -1.865962        -0.509490        -0.418307
 C        -0.660189        -1.342329         0.266512
 C        -0.031606         0.084278         0.663311
 O         0.744940         0.324501         1.530842
 C        -1.199928         0.383653        -1.375663
 O        -2.070079         1.305721        -2.076436
 H         0.870477         2.808922        -0.129459
 H        -0.488940         3.251591        -0.935183
 H        -0.527866         3.133404         0.775669
 H        -2.233061         0.754644         1.584048
 H        -2.772979         1.428400        -0.118668
 H        -2.715139        -1.137342        -0.734397
 H        -1.044230        -1.861706         1.075546
 H        -0.074643        -1.748415        -0.473333
 H        -0.348072         0.102782        -2.079515
 H        -2.654954         0.984148        -2.697441
