19
Iteration:  3966
 C        -0.152056         2.604066         0.049064
 C        -0.777986         1.206639        -0.099147
 C        -2.378602         0.835008         0.179124
 C        -1.843653        -0.616012        -0.535117
 C        -0.825844        -1.191722         0.448423
 C        -0.078936         0.141306         0.809002
 O         0.720471         0.356889         1.710365
 C        -1.000035         0.398453        -1.411000
 O        -1.796043         1.114407        -2.366159
 H         0.966261         2.435184        -0.229730
 H        -0.525105         3.419972        -0.741474
 H        -0.190023         3.085547         1.026547
 H        -2.564097         0.645195         1.196938
 H        -3.059731         1.455136        -0.483598
 H        -2.719586        -1.089973        -0.825932
 H        -1.085458        -1.662589         1.395766
 H        -0.169422        -1.933771         0.005615
 H        -0.128513         0.099375        -1.935657
 H        -1.118734         1.484888        -2.857937
