19
Iteration:  2136charge 0 multiplicity 1
 C        -0.434105         2.613082         0.187440
 C        -0.822407         1.165779         0.067697
 C        -2.409358         0.797894         0.412043
 C        -2.038201        -0.540376        -0.351967
 C        -0.878662        -1.057190         0.542530
 C         0.031485         0.147120         0.692074
 O         1.213592         0.185717         0.986214
 C        -1.114464         0.338467        -1.336206
 O        -1.664588         1.244107        -2.299171
 H        -0.057911         3.057279        -0.805641
 H        -1.380658         3.168673         0.213125
 H         0.246017         2.963719         0.963096
 H        -2.721546         0.593915         1.447281
 H        -2.947114         1.642258        -0.058425
 H        -2.851219        -1.142521        -0.751758
 H        -1.414537        -1.397677         1.470419
 H        -0.427536        -1.953944         0.040468
 H        -0.124895        -0.142025        -1.551964
 H        -1.577008         0.770412        -3.198942
