19
Iteration:   467
 C        -0.089621         2.585497         0.116925
 C        -0.743452         1.259841         0.157194
 C        -2.006227         0.755250         0.980950
 C        -2.064558        -0.470837         0.008825
 C        -0.694892        -1.177046         0.358318
 C         0.174275         0.023905         0.168952
 O         1.370851         0.036071         0.001790
 C        -1.477503         0.499488        -1.147113
 O        -2.486307         1.410613        -1.757386
 H        -0.031007         2.911767        -0.930371
 H        -0.681478         3.356581         0.696169
 H         0.854110         2.477822         0.501013
 H        -1.657628         0.479085         2.063197
 H        -2.834141         1.511058         0.957879
 H        -2.877428        -1.169032        -0.151414
 H        -0.676802        -1.531750         1.430555
 H        -0.440233        -1.969220        -0.302421
 H        -0.929430        -0.025984        -1.887583
 H        -2.535869         1.117241        -2.712332
