19
Iteration:  3849
 C        -0.395165         2.686351         0.109103
 C        -0.930519         1.208825         0.100891
 C        -2.325326         0.830273         0.191617
 C        -1.911847        -0.569368        -0.500357
 C        -1.014845        -1.115811         0.559815
 C        -0.166723         0.134208         0.787926
 O         0.908158         0.263294         1.304627
 C        -0.875616         0.325637        -1.308977
 O        -1.510458         1.099665        -2.397836
 H         0.102415         2.793718        -0.826651
 H        -1.147626         3.393912         0.127893
 H         0.317816         2.863795         0.892366
 H        -2.682509         0.718649         1.330331
 H        -2.884693         1.511130        -0.508202
 H        -2.794125        -1.085649        -1.019064
 H        -1.334922        -1.249697         1.653854
 H        -0.277570        -1.937965         0.504379
 H         0.184492        -0.077234        -1.477426
 H        -0.882210         1.269706        -3.137772
