19
Iteration:  2871charge 0 multiplicity 1
 C        -0.251036         2.616756        -0.025918
 C        -0.734679         1.220132        -0.143197
 C        -2.285628         0.786094         0.217105
 C        -1.885420        -0.464487        -0.526761
 C        -0.756447        -1.117607         0.342501
 C        -0.062246         0.150007         0.830499
 O         0.696645         0.314530         1.766265
 C        -0.993351         0.312960        -1.488347
 O        -1.727267         1.080096        -2.325072
 H         0.454125         2.520818         0.802279
 H         0.262608         2.980997        -0.891042
 H        -1.095878         3.253536         0.352424
 H        -2.477133         0.749911         1.265812
 H        -3.036590         1.433850        -0.254196
 H        -2.840642        -1.127022        -0.742586
 H        -1.077275        -1.730583         1.235071
 H        -0.008118        -1.769558        -0.187933
 H        -0.181524        -0.149024        -2.149961
 H        -2.359749         1.490213        -1.624911
