19
Iteration:  1807charge 0 multiplicity 1
 C        -0.219688         2.612893        -0.019833
 C        -0.752405         1.235069        -0.069132
 C        -2.174886         0.818474         0.480323
 C        -1.903917        -0.470647        -0.358034
 C        -0.740292        -1.181841         0.388370
 C         0.052094         0.051428         0.551428
 O         1.006508         0.163036         1.304394
 C        -1.148708         0.497133        -1.392746
 O        -2.108032         1.211420        -2.087198
 H        -1.141488         3.129777        -0.529245
 H        -0.125362         2.821524         1.019657
 H         0.661024         2.547515        -0.615117
 H        -2.235112         0.768243         1.579902
 H        -2.996519         1.434905         0.102656
 H        -2.768369        -1.043045        -0.665846
 H        -1.109387        -1.665692         1.375983
 H        -0.218760        -1.953387        -0.311804
 H        -0.279143         0.078088        -2.051657
 H        -1.986868         1.156456        -3.006481
