19
Iteration:  2117
 C        -0.410971         2.668980         0.149299
 C        -0.928182         1.304510        -0.030377
 C        -2.271012         0.819758         0.378204
 C        -1.958542        -0.489551        -0.338228
 C        -0.834809        -1.182089         0.430654
 C        -0.029751         0.116043         0.617876
 O         1.076313         0.185567         1.079695
 C        -1.070656         0.375281        -1.276158
 O        -1.710171         1.159737        -2.172041
 H         0.260719         2.891635        -0.738578
 H        -1.023221         3.690586         0.276785
 H         0.331567         2.645544         1.040725
 H        -2.562670         0.746506         1.394518
 H        -3.026298         1.364614        -0.125369
 H        -2.742875        -1.120018        -0.765931
 H        -1.150715        -1.542596         1.458347
 H        -0.221337        -1.920590        -0.240413
 H        -0.232560        -0.188795        -1.731189
 H        -1.914265         0.569406        -2.938649
