19
Iteration:  1034
 C        -0.312459         2.652844         0.085749
 C        -0.814707         1.241145         0.120996
 C        -2.155964         0.836807         0.741280
 C        -2.044623        -0.520687        -0.151989
 C        -0.812184        -1.135974         0.578656
 C         0.171329         0.050184         0.431898
 O         1.385875         0.037055         0.285329
 C        -1.368376         0.363642        -1.226240
 O        -2.131245         1.291705        -2.010150
 H         0.444168         2.811076         0.978547
 H         0.147612         2.879341        -0.901599
 H        -1.083809         3.369333         0.235705
 H        -2.176731         0.685832         1.870169
 H        -2.965397         1.585865         0.475615
 H        -2.993538        -1.059783        -0.309663
 H        -1.183885        -1.364725         1.585717
 H        -0.492641        -2.012843         0.184199
 H        -0.576421        -0.029296        -1.898366
 H        -1.620209         2.023259        -2.285062
