19
Iteration:   523
 C        -0.219999         2.608759         0.177565
 C        -0.735085         1.249810         0.117623
 C        -1.991815         0.781262         0.893756
 C        -2.017442        -0.422720        -0.019267
 C        -0.731211        -1.185152         0.397708
 C         0.224133         0.020899         0.255977
 O         1.410380        -0.046152        -0.038787
 C        -1.470651         0.540086        -1.108978
 O        -2.418243         1.381585        -1.816773
 H        -0.831045         3.357887         0.669297
 H         0.737481         2.542063         0.713304
 H         0.043329         2.948813        -0.780273
 H        -1.999404         0.856981         2.061199
 H        -2.886536         1.371577         0.584763
 H        -2.940164        -0.928542        -0.220782
 H        -0.860952        -1.380823         1.470290
 H        -0.422081        -2.155945        -0.025071
 H        -0.819533         0.102654        -1.848140
 H        -3.061128         0.816474        -2.211224
