19
Iteration:  3899
 C        -0.462194         2.715500         0.122846
 C        -0.910790         1.279671         0.068792
 C        -2.302609         0.809108         0.242048
 C        -1.923376        -0.481815        -0.423791
 C        -0.992856        -1.108379         0.561539
 C        -0.152760         0.191014         0.829975
 O         0.956153         0.124987         1.358407
 C        -0.966702         0.411902        -1.411657
 O        -1.431919         0.967126        -2.484222
 H         0.100617         2.910233        -0.866275
 H        -1.431742         3.418208         0.054387
 H         0.161510         2.999055         0.963269
 H        -2.697686         0.741355         1.252476
 H        -2.931511         1.450571        -0.401520
 H        -2.572832        -1.196748        -0.827831
 H        -1.450531        -1.424684         1.481718
 H        -0.431791        -1.947589         0.164935
 H        -0.038537        -0.081651        -1.553853
 H        -1.027656         1.854831        -2.802656
