19
Iteration:  2936
 C        -0.284976         2.602364        -0.036792
 C        -0.843837         1.195822         0.017195
 C        -2.306585         0.757814         0.326591
 C        -1.925497        -0.503118        -0.574330
 C        -0.719141        -1.133107         0.416017
 C        -0.170225         0.179185         0.815055
 O         0.769273         0.316546         1.574908
 C        -1.023269         0.393994        -1.354439
 O        -1.586394         1.074291        -2.413610
 H         0.583016         2.654249         0.572197
 H         0.130057         2.820293        -0.948751
 H        -0.920545         3.367539         0.430187
 H        -2.540076         0.690049         1.382114
 H        -2.850716         1.504570        -0.287234
 H        -2.819079        -1.224560        -0.827897
 H        -1.175480        -1.757639         1.196985
 H         0.010013        -1.618146        -0.223324
 H        -0.051155         0.010911        -1.717463
 H        -2.484084         1.395922        -2.136109
