19
Iteration:   736
 C        -0.186353         2.610882        -0.059972
 C        -0.774546         1.196906         0.116978
 C        -2.105187         0.791346         0.904513
 C        -2.062634        -0.455035        -0.030981
 C        -0.671319        -1.201907         0.413479
 C         0.171744         0.021687         0.287808
 O         1.360498         0.015355         0.239549
 C        -1.501669         0.480238        -1.159730
 O        -2.244651         1.434511        -1.825502
 H        -0.732270         3.271271         0.617573
 H         0.895052         2.618184         0.169094
 H        -0.390732         2.946881        -1.049769
 H        -2.069694         0.747169         2.079713
 H        -2.940354         1.501110         0.729023
 H        -2.987321        -1.036522        -0.151176
 H        -0.703208        -1.561118         1.513820
 H        -0.422189        -2.069473        -0.231291
 H        -0.937331        -0.066438        -1.946212
 H        -2.476726         1.137062        -2.709849
