19
Iteration:  3449
 C        -0.213126         2.580598        -0.074938
 C        -0.720680         1.160009        -0.053194
 C        -2.257660         0.684748         0.235557
 C        -1.812773        -0.573402        -0.591484
 C        -0.718316        -1.202178         0.381754
 C        -0.155872         0.154557         0.878103
 O         0.644080         0.421064         1.787164
 C        -1.025698         0.365450        -1.450330
 O        -1.733967         1.234965        -2.329781
 H         0.839676         2.716679        -0.288317
 H        -0.678544         2.975933        -0.951828
 H        -0.437001         3.293982         0.723786
 H        -2.681111         0.638244         1.281488
 H        -2.592674         1.649764        -0.235044
 H        -2.500044        -1.300324        -1.123206
 H        -1.242120        -1.881483         1.133858
 H         0.071174        -1.796378        -0.184820
 H        -0.218140         0.040742        -2.030281
 H        -2.751418         1.147485        -2.202660
