19
Iteration:  1791
 C        -0.124574         2.633907        -0.050994
 C        -0.720533         1.205517        -0.111711
 C        -2.164898         0.800142         0.466087
 C        -1.915924        -0.509216        -0.361422
 C        -0.701754        -1.142945         0.242394
 C         0.064842         0.124968         0.665372
 O         1.035571         0.142735         1.470069
 C        -1.259352         0.413757        -1.423016
 O        -2.251695         1.233777        -2.114282
 H        -0.377713         3.422480        -0.693623
 H        -0.302420         3.036161         1.004249
 H         1.010122         2.659731        -0.242913
 H        -2.329709         0.657915         1.550549
 H        -2.964251         1.443196         0.076336
 H        -2.751921        -1.135812        -0.746307
 H        -0.823269        -1.743284         1.107998
 H        -0.139554        -1.683148        -0.465550
 H        -0.485187        -0.046978        -2.001965
 H        -1.998800         1.064991        -3.059524
