19
Iteration:  2914charge 0 multiplicity 1
 C        -0.131038         2.611219        -0.007638
 C        -0.826394         1.213309        -0.063674
 C        -2.343588         0.633858         0.360677
 C        -1.868575        -0.489708        -0.515331
 C        -0.832560        -1.196856         0.387643
 C        -0.073375         0.225306         0.812572
 O         0.757114         0.393000         1.724049
 C        -1.012800         0.413622        -1.401238
 O        -1.688664         1.117244        -2.517727
 H         0.742011         2.775416         0.553099
 H         0.202741         2.782023        -0.966698
 H        -0.847887         3.363089         0.353062
 H        -2.229769         0.230648         1.345989
 H        -3.271041         1.197194         0.100322
 H        -2.574488        -1.269092        -1.084778
 H        -1.429972        -1.606063         1.235942
 H        -0.406616        -1.961093        -0.269103
 H        -0.133199        -0.006534        -1.923208
 H        -2.560332         1.421769        -2.186205
