19
Iteration:  1510
 C        -0.192632         2.654544        -0.170243
 C        -0.709164         1.102375        -0.058464
 C        -2.087398         0.715243         0.636104
 C        -1.964354        -0.535474        -0.326181
 C        -0.670985        -1.255792         0.133571
 C         0.159297        -0.008127         0.540198
 O         1.026614         0.256760         1.378926
 C        -1.342153         0.499691        -1.332711
 O        -2.197570         1.432570        -2.009892
 H        -0.775661         3.092373        -0.992061
 H        -0.242999         3.154451         0.815647
 H         0.832260         2.673278        -0.444369
 H        -1.934219         0.605923         1.742941
 H        -2.877426         1.507970         0.484660
 H        -2.728073        -1.225741        -0.734339
 H        -0.809568        -1.996603         0.924220
 H        -0.125461        -1.864201        -0.610852
 H        -0.716895        -0.039245        -1.983027
 H        -2.678045         1.015936        -2.830988
