19
Iteration:   624charge 0 multiplicity 1
 C         0.025725         2.411672        -0.424530
 C        -0.685277         1.196791        -0.172908
 C        -1.823264         0.667205         0.957699
 C        -1.930535        -0.468032        -0.143763
 C        -0.572948        -1.253970        -0.021062
 C         0.189312         0.020963         0.258742
 O         1.175806         0.143530         0.926328
 C        -1.566946         0.595241        -1.241856
 O        -2.696581         1.561202        -1.449125
 H         1.010308         2.240920        -0.747496
 H        -0.482196         3.060030        -1.055475
 H         0.099099         2.976860         0.594404
 H        -1.346867         0.302865         2.005722
 H        -2.689758         1.404200         1.051085
 H        -2.946532        -0.906776        -0.187799
 H        -0.533010        -1.878931         0.848362
 H        -0.337871        -1.861821        -0.998625
 H        -1.286068         0.326941        -2.249869
 H        -3.274628         1.046216        -2.103676
