19
Iteration:  2021charge 0 multiplicity 1
 C        -0.244763         2.512458        -0.240071
 C        -0.704230         1.104876        -0.160226
 C        -2.095438         0.756371         0.513733
 C        -1.896075        -0.460412        -0.453263
 C        -0.642261        -1.179301         0.178639
 C         0.118296         0.099830         0.684630
 O         0.769616         0.292475         1.711667
 C        -1.185692         0.454740        -1.411438
 O        -2.070958         1.319705        -2.060149
 H         0.734945         2.415469         0.014770
 H        -0.210765         2.954534        -1.242770
 H        -0.728788         3.179074         0.452186
 H        -2.019790         0.502801         1.656156
 H        -2.914440         1.429015         0.257196
 H        -2.636192        -1.234754        -0.701561
 H        -0.992476        -1.799946         0.953019
 H        -0.106618        -1.615921        -0.613503
 H        -0.598701        -0.081520        -2.205162
 H        -2.387111         1.016550        -2.985256
