19
Iteration:  1229charge 0 multiplicity 1
 C        -0.180608         2.625269        -0.262923
 C        -0.680852         1.150253        -0.157353
 C        -2.006225         0.690843         0.682579
 C        -1.993198        -0.525817        -0.308268
 C        -0.643327        -1.165150         0.190604
 C         0.138929         0.097287         0.500279
 O         1.094652         0.134257         1.281114
 C        -1.419204         0.440148        -1.329813
 O        -2.274157         1.410037        -1.904924
 H        -0.993193         3.350426         0.074578
 H         0.732274         2.836361         0.322956
 H         0.140712         2.706659        -1.263304
 H        -1.885580         0.348820         1.732412
 H        -2.726024         1.516084         0.541442
 H        -2.828899        -1.120177        -0.576986
 H        -0.631328        -1.738499         1.202389
 H        -0.083091        -1.735126        -0.758566
 H        -0.788545         0.024168        -2.229337
 H        -3.129618         1.364930        -1.510301
