19
Iteration:  4260charge 0 multiplicity 1
 C        -0.210863         2.607103        -0.050016
 C        -0.730002         1.224295        -0.032490
 C        -2.137185         0.833762         0.302474
 C        -1.838858        -0.475807        -0.516502
 C        -0.844151        -1.098627         0.375877
 C        -0.059085         0.070630         0.768664
 O         0.628290         0.271215         1.778275
 C        -1.025200         0.441229        -1.428499
 O        -1.815378         1.006285        -2.414002
 H         0.901849         2.640869        -0.033785
 H        -0.561968         3.108096        -0.982328
 H        -0.468627         3.225034         0.923447
 H        -2.443487         0.742595         1.347096
 H        -3.070786         1.354974        -0.170089
 H        -2.527265        -1.151625        -1.070343
 H        -1.212106        -1.569854         1.290695
 H        -0.287931        -1.860619        -0.127486
 H        -0.128465         0.034598        -1.840674
 H        -1.548933         1.811809        -2.856172
