19
Iteration:  4908
 C        -0.220262         2.578909         0.104235
 C        -0.766294         1.200724        -0.046527
 C        -2.281040         0.773725         0.326737
 C        -1.881190        -0.467575        -0.507529
 C        -0.879257        -1.096199         0.367590
 C        -0.132695         0.150649         0.753839
 O         0.871387         0.358386         1.574341
 C        -1.042151         0.366482        -1.357444
 O        -1.800409         1.019827        -2.426917
 H        -0.919769         3.101183         0.772702
 H         0.759372         2.536702         0.652456
 H        -0.086084         3.216357        -0.745060
 H        -2.440335         0.630847         1.308424
 H        -3.087767         1.350859        -0.175448
 H        -2.768347        -1.138493        -0.973650
 H        -1.365319        -1.622645         1.230264
 H        -0.114754        -1.842913         0.028105
 H        -0.068175         0.034090        -1.895792
 H        -1.092382         1.613612        -2.917650
