19
Iteration:    53charge 0 multiplicity 1
 C         0.010668         2.573813        -0.133953
 C        -0.616486         1.204510        -0.194673
 C        -1.644601         0.663890         0.998235
 C        -2.023351        -0.488168        -0.095057
 C        -0.630661        -1.246937        -0.205398
 C         0.319607        -0.001445        -0.007969
 O         1.417117        -0.036394         0.465408
 C        -1.748863         0.697844        -1.070674
 O        -3.004214         1.456306        -1.086005
 H         1.030454         2.558863        -0.474986
 H        -0.579195         3.381063        -0.710726
 H         0.211611         3.004031         0.829183
 H        -1.094481         0.326650         1.842838
 H        -2.363580         1.436764         1.159934
 H        -2.953435        -1.036516        -0.099787
 H        -0.434030        -2.128685         0.574924
 H        -0.475715        -1.418784        -1.252508
 H        -1.467607         0.490123        -2.113981
 H        -2.969218         1.834024        -1.977555
