19
Iteration:  1395
 C        -0.312424         2.576620         0.018405
 C        -0.757209         1.223623         0.101177
 C        -2.256940         0.739946         0.670613
 C        -2.022127        -0.498645        -0.264120
 C        -0.793651        -1.202360         0.300406
 C         0.156454         0.062379         0.457292
 O         1.275535         0.177266         0.906120
 C        -1.260164         0.478392        -1.270731
 O        -2.105874         1.248340        -2.136187
 H         0.759262         2.563207         0.310846
 H        -0.485130         3.154804        -0.893592
 H        -0.784328         3.234020         0.756531
 H        -2.400484         0.773926         1.753892
 H        -2.860979         1.574390         0.328200
 H        -2.800324        -1.151422        -0.614466
 H        -1.009506        -1.747158         1.273176
 H        -0.127574        -1.984930        -0.311815
 H        -0.493841         0.001459        -1.975250
 H        -2.032660         2.219481        -1.785578
