19
Iteration:  4956
 C        -0.489097         2.730917         0.083844
 C        -0.846786         1.181802         0.096545
 C        -2.416491         0.840856         0.257130
 C        -1.971833        -0.436190        -0.452716
 C        -0.896063        -1.083680         0.532578
 C        -0.038465         0.172752         0.872992
 O         1.070044         0.066854         1.254208
 C        -1.052944         0.412444        -1.323996
 O        -1.536971         1.019912        -2.420031
 H        -1.428221         3.195031         0.284779
 H         0.243893         3.057504         0.746668
 H        -0.198892         3.051769        -0.898623
 H        -2.777514         0.902730         1.390184
 H        -2.920010         1.609650        -0.326277
 H        -2.605280        -1.104073        -1.083120
 H        -1.380436        -1.455535         1.403252
 H        -0.311166        -1.917053         0.175421
 H        -0.084851        -0.131740        -1.622823
 H        -0.993320         1.577508        -2.882849
