19
Iteration:  2388
 C        -0.321228         2.629635         0.125177
 C        -0.876752         1.207713         0.113299
 C        -2.333097         0.841779         0.256716
 C        -1.900555        -0.525956        -0.405760
 C        -0.847306        -1.093807         0.437246
 C        -0.038793         0.134660         0.705671
 O         1.013325         0.235294         1.285347
 C        -1.037227         0.424828        -1.353654
 O        -1.737401         1.120341        -2.345413
 H         0.005037         2.844807         1.129886
 H         0.666050         2.642800        -0.361322
 H        -0.899667         3.462626        -0.201777
 H        -2.688783         0.666761         1.353640
 H        -3.061092         1.338886        -0.365352
 H        -2.525640        -1.298512        -0.849087
 H        -1.278156        -1.543025         1.323769
 H        -0.184296        -1.776432         0.008271
 H        -0.191712         0.006280        -1.821649
 H        -2.466415         0.557565        -2.472054
