19
Iteration:  1897charge 0 multiplicity 1
 C        -0.425000         2.653816         0.206173
 C        -0.882265         1.181948         0.137261
 C        -2.371851         0.775103         0.458900
 C        -1.994314        -0.434597        -0.407966
 C        -0.942840        -1.120301         0.514378
 C         0.045576         0.177460         0.747157
 O         1.237383         0.194749         0.830658
 C        -1.052862         0.367083        -1.285651
 O        -1.735399         1.155939        -2.273856
 H        -0.468010         3.073066         1.256601
 H         0.646725         2.824640        -0.138573
 H        -0.962904         3.385474        -0.497527
 H        -2.471003         0.566115         1.596026
 H        -3.093953         1.565945         0.099387
 H        -2.746275        -1.005540        -0.968904
 H        -1.488416        -1.565672         1.428992
 H        -0.300830        -1.965275         0.040329
 H        -0.187852        -0.145977        -1.851235
 H        -1.939866         0.466028        -2.996593
