19
Iteration:  3880charge 0 multiplicity 1
 C        -0.509981         2.739755         0.086427
 C        -0.854910         1.183380         0.019245
 C        -2.458800         0.886437         0.221768
 C        -1.953640        -0.450409        -0.502671
 C        -0.979437        -1.071742         0.568883
 C        -0.110335         0.128203         0.882902
 O         1.048543         0.132899         1.338030
 C        -0.916313         0.283947        -1.225069
 O        -1.471438         1.035306        -2.511948
 H         0.053197         3.217312        -0.820969
 H        -1.545944         3.314069         0.166371
 H         0.098958         2.833157         0.974813
 H        -2.862315         0.833576         1.150201
 H        -3.128173         1.566767        -0.354391
 H        -2.724543        -0.957857        -1.034592
 H        -1.410908        -1.497086         1.530156
 H        -0.156250        -1.686356         0.145908
 H         0.026472        -0.283572        -1.521942
 H        -0.650378         1.575015        -2.742980
