19
Iteration:   135charge 0 multiplicity 1
 C        -0.238004         2.586995        -0.048707
 C        -0.709333         1.155509         0.016050
 C        -1.699356         0.652353         1.024288
 C        -2.009794        -0.451164        -0.055571
 C        -0.651869        -1.222113        -0.028026
 C         0.281013        -0.007853         0.098238
 O         1.492797        -0.044943         0.180640
 C        -1.696030         0.660909        -1.075213
 O        -2.686879         1.577094        -1.375485
 H        -1.028708         3.382153         0.064214
 H         0.541397         2.689693         0.672446
 H         0.334020         2.626561        -1.010731
 H        -1.420079         0.361466         2.081848
 H        -2.503966         1.438710         1.092733
 H        -2.994606        -1.028746        -0.145667
 H        -0.469202        -1.864740         0.768027
 H        -0.489036        -1.890873        -0.905782
 H        -1.229130         0.303980        -2.019609
 H        -3.430793         0.991724        -1.337716
