19
Iteration:  3219charge 0 multiplicity 1
 C        -0.282260         2.661845         0.044158
 C        -0.788686         1.223645        -0.093350
 C        -2.277154         0.830713         0.279301
 C        -1.850990        -0.555590        -0.550227
 C        -0.800035        -1.135962         0.365024
 C        -0.135745         0.208214         0.787050
 O         0.746641         0.279801         1.652816
 C        -0.939124         0.333746        -1.388021
 O        -1.717845         1.121493        -2.314461
 H         0.825347         2.699323         0.192914
 H        -0.418852         3.169748        -0.900513
 H        -0.855213         3.099138         0.979848
 H        -2.629638         0.764365         1.312132
 H        -3.144569         1.351622        -0.239029
 H        -2.626829        -1.206454        -1.049840
 H        -1.212518        -1.629284         1.264520
 H        -0.056087        -1.881876         0.028225
 H         0.054056        -0.226069        -1.834248
 H        -1.985609         0.658989        -3.153320
