19
Iteration:  3647charge 0 multiplicity 1
 C        -0.426363         2.650358         0.106700
 C        -0.823834         1.240635        -0.036347
 C        -2.397782         0.807499         0.232670
 C        -1.932786        -0.455671        -0.501361
 C        -0.941074        -1.079240         0.460541
 C        -0.042812         0.167786         0.809182
 O         0.947360         0.223142         1.474673
 C        -0.943815         0.357593        -1.377635
 O        -1.575878         1.068099        -2.374659
 H         0.585448         2.735802         0.503246
 H        -0.535520         3.276709        -0.793713
 H        -1.026138         3.086322         0.833688
 H        -2.491043         0.694877         1.332052
 H        -3.052886         1.569195        -0.088883
 H        -2.612909        -1.224356        -0.975188
 H        -1.406932        -1.451272         1.388158
 H        -0.228956        -1.861575         0.096276
 H        -0.067183        -0.244121        -1.764691
 H        -1.476163         0.506881        -3.123778
