19
Iteration:  2008
 C        -0.136234         2.565053        -0.261433
 C        -0.695119         1.160885        -0.091963
 C        -2.125379         0.656609         0.560267
 C        -1.882335        -0.523177        -0.394043
 C        -0.595117        -1.107763         0.242517
 C         0.030515         0.124407         0.714506
 O         0.776667         0.206782         1.654545
 C        -1.272644         0.413970        -1.464968
 O        -2.094339         1.391605        -2.172481
 H         0.824986         2.720094         0.126898
 H        -0.337176         2.801618        -1.385716
 H        -0.833388         3.254178         0.312635
 H        -2.174197         0.453868         1.649998
 H        -2.880296         1.386631         0.304255
 H        -2.733830        -1.124325        -0.724766
 H        -0.654655        -1.862396         1.063325
 H         0.075217        -1.754871        -0.375222
 H        -0.374388         0.110102        -2.003419
 H        -2.201391         0.982367        -2.991484
