19
Iteration:  1709
 C        -0.192297         2.585930        -0.141748
 C        -0.682126         1.155394        -0.121228
 C        -2.187551         0.769438         0.513412
 C        -1.926060        -0.519427        -0.380324
 C        -0.724132        -1.189977         0.291198
 C         0.142540         0.061767         0.675751
 O         1.074226         0.186039         1.421816
 C        -1.282837         0.529937        -1.408273
 O        -2.212199         1.267631        -2.123738
 H         0.886859         2.480904        -0.516837
 H        -0.757103         3.218023        -0.807898
 H        -0.420031         2.849537         0.850177
 H        -2.092698         0.771962         1.679587
 H        -3.046486         1.386335         0.168589
 H        -2.713493        -1.129151        -0.801731
 H        -1.005229        -1.856771         1.174604
 H        -0.006392        -1.757122        -0.382460
 H        -0.598698        -0.068571        -2.091143
 H        -2.289242         2.141000        -1.852340
