19
Iteration:    22charge 0 multiplicity 1
 C        -0.055683         2.578184        -0.006348
 C        -0.658121         1.184194        -0.061288
 C        -1.697699         0.633904         1.056314
 C        -1.992556        -0.431694        -0.036070
 C        -0.659880        -1.224869        -0.097851
 C         0.312945        -0.001955        -0.030538
 O         1.519823        -0.069358         0.212805
 C        -1.760445         0.690915        -1.085158
 O        -2.910938         1.567420        -1.288217
 H         0.904671         2.486087         0.493242
 H         0.192621         2.937444        -1.020248
 H        -0.699719         3.304136         0.482497
 H        -1.260617         0.328456         1.992028
 H        -2.493332         1.349886         1.218760
 H        -2.867598        -1.072314        -0.023951
 H        -0.431545        -1.977269         0.727994
 H        -0.447655        -1.751460        -1.017798
 H        -1.325358         0.383395        -2.013840
 H        -3.659438         0.918693        -1.186860
