19
Iteration:  4641
 C        -0.380819         2.619137        -0.039810
 C        -0.819870         1.195487         0.039636
 C        -2.373905         0.852160         0.219613
 C        -1.885399        -0.480758        -0.510069
 C        -0.906263        -1.129012         0.445813
 C        -0.125291         0.114044         0.821289
 O         0.879736         0.291385         1.534037
 C        -0.893252         0.345636        -1.289882
 O        -1.610753         1.110095        -2.382827
 H         0.480570         2.673112        -0.670877
 H        -1.147072         3.344826        -0.347548
 H        -0.184088         3.036593         1.003304
 H        -2.662611         0.663031         1.372489
 H        -3.241529         1.415121        -0.316842
 H        -2.602398        -1.137684        -0.950185
 H        -1.350320        -1.411550         1.461187
 H        -0.431944        -2.088656        -0.031436
 H         0.047673        -0.210120        -1.589468
 H        -1.067186         1.106688        -3.250813
