19
Iteration:  1651
 C        -0.361290         2.607826         0.142699
 C        -0.876118         1.249116         0.110667
 C        -2.286078         0.785756         0.558450
 C        -1.992292        -0.478580        -0.271963
 C        -0.871896        -1.124826         0.450154
 C         0.050550         0.102083         0.572507
 O         1.214857         0.166139         0.812365
 C        -1.170491         0.446649        -1.285547
 O        -1.843290         1.119870        -2.268023
 H         0.374867         2.603489         0.930548
 H         0.079676         2.908826        -0.810818
 H        -1.122608         3.252196         0.447174
 H        -2.284417         0.575571         1.587056
 H        -3.052790         1.509590         0.334971
 H        -2.846608        -1.132674        -0.524352
 H        -1.150979        -1.621165         1.416511
 H        -0.289752        -1.931791        -0.125070
 H        -0.302228         0.081284        -1.858859
 H        -1.728938         2.128952        -2.119274
