19
Iteration:  2048
 C        -0.169989         2.700462        -0.085274
 C        -0.608449         1.159763        -0.138297
 C        -2.127609         0.714266         0.424639
 C        -1.842229        -0.503949        -0.421505
 C        -0.648658        -1.284341         0.309975
 C        -0.042238         0.078654         0.653056
 O         0.759368         0.294153         1.505199
 C        -1.197278         0.417670        -1.360861
 O        -2.054325         1.300467        -2.110447
 H         1.029230         2.677345        -0.144007
 H        -0.602726         3.287017        -0.918162
 H        -0.461466         3.081846         0.922653
 H        -2.304799         0.675203         1.476491
 H        -2.813059         1.399588        -0.114425
 H        -2.640376        -1.189166        -0.717052
 H        -1.100002        -1.878339         1.172665
 H         0.033708        -1.878178        -0.399817
 H        -0.472587         0.008923        -2.103938
 H        -2.792616         0.931706        -2.727716
