19
Iteration:  3178
 C        -0.090149         2.618322        -0.072441
 C        -0.745610         1.171529        -0.035443
 C        -2.255789         0.679933         0.294627
 C        -1.821155        -0.558459        -0.599363
 C        -0.737990        -1.205357         0.316529
 C        -0.088827         0.169968         0.883294
 O         0.636020         0.442509         1.883826
 C        -1.027612         0.323127        -1.494812
 O        -1.909346         1.197298        -2.387765
 H         0.958564         2.676092        -0.394071
 H        -0.698945         3.358074        -0.624585
 H        -0.096653         3.003568         0.990057
 H        -2.532100         0.692894         1.347645
 H        -3.029332         1.429700        -0.099690
 H        -2.518282        -1.193728        -1.086998
 H        -1.239780        -1.706496         1.117757
 H        -0.046155        -1.900166        -0.117927
 H        -0.203565        -0.076613        -2.016347
 H        -1.504583         1.109890        -3.212637
