19
Iteration:  1646
 C        -0.382419         2.546090         0.187680
 C        -0.874110         1.219397         0.130784
 C        -2.284346         0.813393         0.570878
 C        -1.981062        -0.459921        -0.273224
 C        -0.857343        -1.117528         0.458223
 C         0.037392         0.086037         0.583114
 O         1.228061         0.176513         0.776160
 C        -1.159045         0.439474        -1.295343
 O        -1.845140         1.129248        -2.294401
 H         0.385638         2.819373         0.982689
 H         0.106116         2.868305        -0.749010
 H        -1.145803         3.435194         0.402846
 H        -2.364730         0.667877         1.719572
 H        -3.149554         1.436444         0.225002
 H        -2.804912        -1.120139        -0.547023
 H        -1.176086        -1.470137         1.427425
 H        -0.366915        -1.855034        -0.106962
 H        -0.316610        -0.062225        -1.820377
 H        -1.750755         2.068979        -2.277473
