19
Iteration:  4538charge 0 multiplicity 1
 C        -0.250645         2.666437        -0.070778
 C        -0.730019         1.218315        -0.064416
 C        -2.202775         0.853081         0.249199
 C        -1.931902        -0.519239        -0.397587
 C        -0.721433        -1.131240         0.349343
 C        -0.062820         0.148686         0.799880
 O         0.639587         0.211586         1.740019
 C        -1.061509         0.395618        -1.373905
 O        -1.771772         1.041394        -2.421626
 H         0.799876         2.697804         0.488273
 H        -0.122471         2.941732        -1.181455
 H        -0.888945         3.386840         0.448509
 H        -2.459170         0.968435         1.300435
 H        -2.881793         1.454023        -0.278150
 H        -2.661383        -1.196404        -0.870061
 H        -1.019947        -1.750471         1.187870
 H        -0.316979        -1.919972        -0.297626
 H        -0.091584        -0.058214        -1.818279
 H        -1.197430         1.854842        -2.631563
