19
Iteration:  1944charge 0 multiplicity 1
 C        -0.308831         2.652423         0.144614
 C        -0.799106         1.208130        -0.079662
 C        -2.221215         0.797046         0.375375
 C        -1.954343        -0.517452        -0.405600
 C        -0.846818        -1.185934         0.471884
 C         0.028610         0.110709         0.723288
 O         1.158063         0.228479         1.216065
 C        -1.166132         0.394642        -1.385858
 O        -1.915346         1.227112        -2.244415
 H         0.297410         2.741934         0.998422
 H         0.256332         3.224326        -0.639782
 H        -1.135261         3.392614         0.303556
 H        -2.570101         0.650283         1.500053
 H        -3.025387         1.317649        -0.185912
 H        -2.793732        -1.149498        -0.738975
 H        -1.214305        -1.681785         1.356324
 H        -0.275337        -1.903046        -0.079601
 H        -0.260214        -0.088674        -1.914810
 H        -2.415123         0.709409        -2.945416
