19
Iteration:  1338charge 0 multiplicity 1
 C        -0.469310         2.654689         0.259540
 C        -0.865525         1.262985         0.118902
 C        -2.305597         0.792005         0.603473
 C        -1.979000        -0.449004        -0.238707
 C        -0.860615        -1.123140         0.590517
 C         0.146932         0.024530         0.490377
 O         1.356654         0.054805         0.426121
 C        -1.206009         0.500865        -1.203431
 O        -1.876613         1.231272        -2.209278
 H         0.280194         2.748045         1.148678
 H         0.129319         3.038971        -0.588836
 H        -1.290901         3.279642         0.468298
 H        -2.214267         0.534837         1.651247
 H        -3.139461         1.439842         0.280757
 H        -2.727312        -1.121376        -0.581825
 H        -1.268488        -1.253007         1.619342
 H        -0.391679        -2.108139         0.274345
 H        -0.283731        -0.068842        -1.552186
 H        -2.763850         0.990678        -2.339029
