19
Iteration:  3570
 C        -0.407965         2.672282         0.105689
 C        -0.990884         1.219696         0.007815
 C        -2.428690         0.775484         0.184855
 C        -1.872269        -0.557734        -0.512301
 C        -0.997243        -1.163518         0.632075
 C        -0.100564         0.130790         0.891642
 O         1.009355         0.283022         1.292354
 C        -0.905058         0.355568        -1.328283
 O        -1.431242         1.103493        -2.461410
 H         0.559743         2.713389        -0.356040
 H        -0.998037         3.287381        -0.548901
 H        -0.367247         3.156349         1.038248
 H        -2.826612         0.805172         1.260371
 H        -3.150160         1.358437        -0.390373
 H        -2.581462        -1.253901        -1.089655
 H        -1.548363        -1.303033         1.584285
 H        -0.491055        -2.127103         0.293185
 H         0.161019         0.239517        -1.482642
 H        -2.035863         1.755136        -2.059050
