19
Iteration:  1539
 C        -0.302093         2.583343        -0.024839
 C        -0.809091         1.130375         0.005576
 C        -2.146094         0.686292         0.583283
 C        -1.958332        -0.533835        -0.320052
 C        -0.748721        -1.117122         0.284455
 C         0.058908         0.123694         0.556549
 O         1.127938         0.174170         1.110054
 C        -1.229952         0.454788        -1.351868
 O        -2.035469         1.393261        -2.036058
 H        -1.025479         3.312071        -0.199970
 H         0.269317         2.824681         0.874000
 H         0.399023         2.696222        -0.938430
 H        -2.114080         0.570770         1.624293
 H        -2.889063         1.429086         0.349108
 H        -2.747476        -1.208657        -0.712911
 H        -0.962847        -1.670002         1.260258
 H        -0.114706        -1.790870        -0.393542
 H        -0.429921        -0.172671        -1.873695
 H        -2.713987         1.020559        -2.637902
