19
Iteration:  4100
 C        -0.255890         2.641580         0.139645
 C        -0.920599         1.236181         0.001765
 C        -2.414917         0.767586         0.146752
 C        -1.883329        -0.543106        -0.472222
 C        -0.928190        -1.090265         0.587581
 C        -0.142996         0.189071         0.841302
 O         0.951014         0.252244         1.377501
 C        -0.923713         0.382470        -1.356318
 O        -1.644974         1.059715        -2.435973
 H         0.849774         2.476145         0.473970
 H        -0.330680         3.424105        -0.674050
 H        -0.867015         3.108350         1.056159
 H        -2.876007         0.747500         1.138362
 H        -3.053913         1.374609        -0.472208
 H        -2.724546        -1.177180        -0.935020
 H        -1.531518        -1.507882         1.441996
 H        -0.163247        -1.805459         0.232432
 H         0.020230        -0.125722        -1.656426
 H        -1.059294         1.501625        -3.003069
