19
Iteration:  4123charge 0 multiplicity 1
 C        -0.462626         2.718386         0.235472
 C        -0.832878         1.201234         0.089834
 C        -2.338975         0.907234         0.135690
 C        -1.926498        -0.480005        -0.485021
 C        -0.992400        -1.092644         0.549787
 C        -0.139062         0.156395         0.798859
 O         1.005602         0.225644         1.279638
 C        -0.940489         0.300138        -1.348881
 O        -1.543258         0.952923        -2.400832
 H         0.686190         2.831742         0.070138
 H        -0.941830         3.300947        -0.607169
 H        -0.803227         3.249348         1.274340
 H        -2.762117         0.869934         1.125297
 H        -2.953081         1.521943        -0.445968
 H        -2.666507        -1.165619        -1.039672
 H        -1.654537        -1.410268         1.401588
 H        -0.298763        -1.904554         0.212367
 H         0.012239        -0.209023        -1.537239
 H        -0.889839         1.533047        -2.895437
