19
Iteration:  4640charge 0 multiplicity 1
 C        -0.371311         2.611805        -0.035783
 C        -0.817220         1.185382         0.036969
 C        -2.365031         0.853361         0.210467
 C        -1.880445        -0.478510        -0.515890
 C        -0.900824        -1.125100         0.440405
 C        -0.137321         0.116437         0.822615
 O         0.878184         0.298105         1.537347
 C        -0.899987         0.348130        -1.291715
 O        -1.615576         1.109427        -2.373106
 H         0.507715         2.650714        -0.686283
 H        -1.169901         3.338514        -0.347046
 H        -0.206808         3.052465         1.026622
 H        -2.650545         0.677613         1.329515
 H        -3.244227         1.432768        -0.314797
 H        -2.605970        -1.167867        -0.948233
 H        -1.339169        -1.402481         1.459967
 H        -0.427106        -2.101737        -0.013532
 H         0.042866        -0.239015        -1.585322
 H        -1.115426         1.116154        -3.215305
