19
Iteration:   851
 C        -0.039170         2.612337        -0.049738
 C        -0.694977         1.225057        -0.068729
 C        -1.982143         0.828361         0.825101
 C        -2.030259        -0.409932        -0.110575
 C        -0.763375        -1.242327         0.258353
 C         0.173050         0.011744         0.352140
 O         1.338164         0.128751         0.672131
 C        -1.476555         0.462226        -1.245847
 O        -2.553081         1.230758        -1.858193
 H         0.810386         2.672726        -0.746585
 H        -0.726170         3.440843        -0.291065
 H         0.397709         2.772295         1.032413
 H        -1.784516         0.639173         1.834705
 H        -2.761084         1.578737         0.765314
 H        -2.952122        -1.024337        -0.284706
 H        -0.703414        -1.807568         1.246105
 H        -0.540989        -1.950143        -0.608897
 H        -0.836112         0.000695        -2.001482
 H        -2.189963         2.083438        -2.178722
