19
Iteration:   911charge 0 multiplicity 1
 C        -0.094897         2.665765        -0.467486
 C        -0.660598         1.214127        -0.195871
 C        -1.857679         0.730919         0.744070
 C        -1.945052        -0.506482        -0.207816
 C        -0.685978        -1.336796         0.044641
 C         0.201062         0.036374         0.452785
 O         1.173640         0.114233         1.177671
 C        -1.557185         0.469862        -1.255827
 O        -2.477295         1.487315        -1.567679
 H        -0.742544         3.025273        -1.329525
 H        -0.109003         3.383450         0.418850
 H         0.999217         2.503324        -0.932667
 H        -1.702743         0.563352         1.891021
 H        -2.762193         1.391082         0.544940
 H        -2.873826        -1.045743        -0.279548
 H        -0.767434        -1.963421         0.882652
 H        -0.276163        -1.873254        -0.769188
 H        -0.997059        -0.017960        -2.126871
 H        -3.185323         1.144231        -2.085140
