19
Iteration:   861
 C        -0.010024         2.626202        -0.163375
 C        -0.703515         1.177536        -0.079376
 C        -1.980883         0.792988         0.865940
 C        -1.990158        -0.439494        -0.139128
 C        -0.742184        -1.224490         0.202219
 C         0.194333         0.029140         0.386191
 O         1.338708         0.130512         0.791679
 C        -1.568571         0.468552        -1.294776
 O        -2.559914         1.309861        -1.794571
 H         0.715804         2.790555        -0.994381
 H        -0.801896         3.372999        -0.080432
 H         0.674835         2.647179         0.737291
 H        -1.670442         0.662984         1.841138
 H        -2.929798         1.316305         0.699074
 H        -2.844115        -1.142343        -0.348381
 H        -1.025756        -1.775932         1.222985
 H        -0.358953        -2.034450        -0.532912
 H        -0.979212         0.005974        -2.059704
 H        -2.115004         1.958605        -2.444357
