19
Iteration:  1618
 C        -0.346533         2.658794         0.331514
 C        -0.848770         1.233234         0.176515
 C        -2.337843         0.814305         0.466886
 C        -2.018434        -0.502265        -0.299075
 C        -0.907322        -1.157678         0.559249
 C         0.074675         0.103978         0.559739
 O         1.317581         0.178561         0.636783
 C        -1.209634         0.460717        -1.274915
 O        -1.885453         1.090076        -2.281148
 H        -0.182483         2.856396         1.374603
 H         0.618622         2.990513        -0.072247
 H        -0.961225         3.435763        -0.004429
 H        -2.542854         0.563334         1.486638
 H        -3.140389         1.457374         0.039925
 H        -2.857143        -1.190187        -0.569877
 H        -1.296108        -1.400961         1.592409
 H        -0.389820        -2.013124        -0.041383
 H        -0.226944        -0.036707        -1.633204
 H        -1.279025         1.712850        -2.794095
