19
Iteration:  1468
 C        -0.035579         2.658457        -0.162612
 C        -0.679565         1.282538        -0.126696
 C        -1.998689         0.769396         0.596896
 C        -1.864251        -0.543932        -0.426782
 C        -0.652468        -1.244832         0.143490
 C         0.113481         0.040919         0.581798
 O         0.971085         0.145613         1.457638
 C        -1.300341         0.478578        -1.412058
 O        -2.491698         1.276836        -1.881680
 H         0.507507         3.102206        -1.146770
 H        -0.765918         3.482689         0.184769
 H         0.794819         2.721474         0.503804
 H        -2.236853         0.592841         1.701745
 H        -2.817198         1.497232         0.339148
 H        -2.665351        -1.187909        -0.779402
 H        -0.718295        -1.996387         0.880670
 H        -0.213230        -1.620158        -0.717146
 H        -0.593446         0.208002        -2.277939
 H        -2.444877         1.159027        -2.881916
