19
Iteration:  2107
 C        -0.288512         2.727965         0.137013
 C        -0.865446         1.267560        -0.004109
 C        -2.297474         0.800677         0.390735
 C        -1.938859        -0.549812        -0.337313
 C        -0.825323        -1.227301         0.415451
 C        -0.051919         0.117303         0.643193
 O         1.038225         0.218885         1.148551
 C        -1.047899         0.430112        -1.290641
 O        -1.808464         1.166529        -2.249437
 H         0.352409         2.841351        -0.742839
 H        -1.162415         3.546052         0.059047
 H         0.394790         2.810694         1.054731
 H        -2.487380         0.680788         1.462601
 H        -3.017988         1.420291        -0.098427
 H        -2.803571        -1.069634        -0.756083
 H        -1.090779        -1.855605         1.301670
 H        -0.294352        -2.014430        -0.238114
 H        -0.072255         0.095551        -1.647061
 H        -2.181381         0.597766        -2.904510
