19
Iteration:  1298charge 0 multiplicity 1
 C        -0.225556         2.709994         0.321580
 C        -0.818244         1.293418         0.086252
 C        -2.238282         0.821816         0.583036
 C        -1.997918        -0.487248        -0.277526
 C        -0.787064        -1.180202         0.460223
 C         0.099701         0.106562         0.537303
 O         1.301670         0.157216         0.585029
 C        -1.304430         0.386516        -1.309394
 O        -2.125227         1.160143        -2.099270
 H        -0.210615         2.896351         1.389541
 H         0.832337         2.733305         0.002078
 H        -0.686283         3.539479        -0.267120
 H        -2.305349         0.656077         1.689301
 H        -3.110560         1.383109         0.175509
 H        -2.843469        -1.142301        -0.605495
 H        -1.115919        -1.579281         1.441705
 H        -0.409664        -2.084164        -0.197073
 H        -0.585610        -0.164532        -1.975403
 H        -1.601456         0.889930        -2.928897
