19
Iteration:  3474
 C        -0.220042         2.582089        -0.026536
 C        -0.845927         1.255109        -0.143384
 C        -2.295133         0.689666         0.223958
 C        -1.842499        -0.500264        -0.485819
 C        -0.699594        -1.144173         0.367742
 C        -0.059377         0.147426         0.829575
 O         0.627298         0.318041         1.763088
 C        -0.979043         0.398423        -1.429469
 O        -1.702412         1.172028        -2.336097
 H         0.903441         2.713333        -0.170646
 H        -0.711512         3.352574        -0.793889
 H        -0.419766         3.027614         0.954040
 H        -2.318180         0.782408         1.316563
 H        -3.080217         1.280282        -0.195075
 H        -2.517022        -1.113203        -0.883225
 H        -1.137863        -1.685642         1.181876
 H        -0.100767        -1.841050        -0.190048
 H        -0.138864        -0.075049        -1.990396
 H        -2.457208         0.597483        -2.750080
