19
Iteration:  4058charge 0 multiplicity 1
 C        -0.223573         2.607641        -0.031418
 C        -0.714819         1.217514        -0.106137
 C        -2.281442         0.780482         0.260837
 C        -1.922462        -0.485534        -0.546850
 C        -0.886741        -1.191433         0.428060
 C        -0.149905         0.138117         0.912122
 O         0.773172         0.342554         1.648924
 C        -0.961341         0.377804        -1.423186
 O        -1.757852         1.078983        -2.330171
 H         0.818113         2.500628         0.395027
 H        -0.095964         3.050714        -1.038908
 H        -0.823167         3.450607         0.507583
 H        -2.513078         0.625911         1.286953
 H        -2.990827         1.315040        -0.262064
 H        -2.676498        -1.192303        -1.003245
 H        -1.412437        -1.834682         1.175033
 H        -0.091374        -1.814278        -0.083310
 H        -0.069871         0.035830        -1.909169
 H        -1.191012         1.794696        -2.745835
