19
Iteration:  2504charge 0 multiplicity 1
 C        -0.342746         2.635599         0.045762
 C        -0.878374         1.267320        -0.101873
 C        -2.377966         0.719591         0.403229
 C        -1.907606        -0.520784        -0.449948
 C        -0.880587        -1.093938         0.517862
 C        -0.041120         0.178206         0.702424
 O         0.992332         0.178877         1.364638
 C        -0.999123         0.432270        -1.325389
 O        -1.665229         1.111781        -2.400030
 H         0.763004         2.494131        -0.070353
 H        -0.726451         3.383046        -0.642929
 H        -0.641252         2.931495         1.048003
 H        -2.504520         0.560403         1.445615
 H        -3.234538         1.159292        -0.128967
 H        -2.552941        -1.206317        -1.013838
 H        -1.338679        -1.498039         1.453841
 H        -0.029536        -1.693876         0.072110
 H        -0.059013         0.092214        -1.816924
 H        -2.248441         1.717806        -1.961599
