19
Iteration:  3692
 C        -0.192301         2.523052        -0.034443
 C        -0.804855         1.168296        -0.080679
 C        -2.302081         0.769254         0.186463
 C        -1.867870        -0.534837        -0.583238
 C        -0.825603        -1.136462         0.499693
 C        -0.118015         0.122674         0.845972
 O         0.797375         0.393185         1.681609
 C        -0.985313         0.395745        -1.396334
 O        -1.804547         1.161927        -2.301861
 H         0.904152         2.486637        -0.065563
 H        -0.507642         3.156724        -0.918423
 H        -0.433099         3.026226         0.814360
 H        -2.785138         0.608161         1.201776
 H        -3.093415         1.252666        -0.390923
 H        -2.550074        -1.167680        -1.114800
 H        -1.287584        -1.665431         1.345823
 H        -0.167619        -1.844437        -0.074695
 H        -0.035623         0.020991        -1.854469
 H        -1.260298         1.568955        -2.921966
