19
Iteration:  4994charge 0 multiplicity 1
 C        -0.386005         2.649603         0.086291
 C        -0.813700         1.233045         0.028907
 C        -2.432966         0.778283         0.212953
 C        -1.944160        -0.551173        -0.539454
 C        -1.016989        -1.136674         0.680603
 C        -0.123963         0.084757         0.815935
 O         1.009467         0.254664         1.084874
 C        -0.897397         0.383273        -1.243256
 O        -1.580524         1.134751        -2.281829
 H        -1.253568         3.336243         0.345750
 H         0.363244         2.803272         0.975671
 H         0.077671         3.116800        -0.845379
 H        -2.788441         0.874379         1.300156
 H        -3.091204         1.383821        -0.487682
 H        -2.571781        -1.175564        -1.136277
 H        -1.641327        -1.226523         1.633304
 H        -0.349484        -2.002824         0.454055
 H         0.022583        -0.023536        -1.591269
 H        -0.720463         1.397416        -2.676782
