19
Iteration:  2934
 C        -0.277985         2.593765        -0.038210
 C        -0.836046         1.213545         0.028940
 C        -2.297594         0.739776         0.349657
 C        -1.928706        -0.515319        -0.603847
 C        -0.739581        -1.111234         0.402711
 C        -0.170567         0.172818         0.810747
 O         0.770867         0.328474         1.591641
 C        -1.021719         0.389647        -1.376529
 O        -1.591075         1.067721        -2.411455
 H         0.605690         2.582616         0.615528
 H         0.144428         2.825594        -1.001718
 H        -0.884311         3.409202         0.408755
 H        -2.528373         0.655009         1.460726
 H        -2.873307         1.517188        -0.267297
 H        -2.789639        -1.216109        -0.857651
 H        -1.179290        -1.713348         1.195463
 H         0.047078        -1.585573        -0.177883
 H        -0.103315        -0.003978        -1.679126
 H        -2.523860         1.406154        -2.128969
