19
Iteration:  2942
 C        -0.310678         2.617234        -0.007044
 C        -0.860273         1.170377        -0.025667
 C        -2.320024         0.811013         0.234374
 C        -1.921636        -0.497258        -0.437395
 C        -0.711784        -1.197227         0.428161
 C        -0.149500         0.179946         0.828115
 O         0.781822         0.289278         1.541369
 C        -1.004011         0.401763        -1.311534
 O        -1.568212         1.100415        -2.428643
 H         0.636403         2.783990         0.615537
 H         0.020700         2.927143        -1.095001
 H        -1.102858         3.291741         0.375916
 H        -2.711867         0.780836         1.298018
 H        -3.017845         1.490680        -0.311471
 H        -2.649966        -1.129162        -0.835310
 H        -1.068968        -1.877742         1.206489
 H        -0.088686        -1.783237        -0.288943
 H        -0.071975         0.040280        -1.782162
 H        -2.498646         1.421470        -2.159536
