19
Iteration:  2112
 C        -0.367091         2.714000         0.162747
 C        -0.914927         1.304901        -0.045278
 C        -2.264733         0.813263         0.369017
 C        -1.940963        -0.529684        -0.316320
 C        -0.816165        -1.221122         0.420622
 C        -0.045335         0.111954         0.623109
 O         1.050954         0.199320         1.109995
 C        -1.060173         0.401193        -1.284351
 O        -1.753735         1.165641        -2.194389
 H         0.273056         2.823405        -0.732217
 H        -0.927687         3.575302         0.148075
 H         0.336519         2.730171         0.951911
 H        -2.553510         0.618906         1.451859
 H        -3.011401         1.500823        -0.134045
 H        -2.807862        -1.044225        -0.758504
 H        -1.150117        -1.685779         1.343179
 H        -0.334573        -1.913481        -0.214976
 H        -0.099504        -0.090632        -1.624650
 H        -2.039022         0.529361        -2.906069
