19
Iteration:  4791charge 0 multiplicity 1
 C        -0.332806         2.617516        -0.011306
 C        -0.720431         1.197335        -0.068124
 C        -2.306065         0.848829         0.280250
 C        -1.891650        -0.475709        -0.475682
 C        -0.859992        -1.119780         0.391752
 C        -0.124021         0.154963         0.793977
 O         0.794910         0.260241         1.631725
 C        -1.009807         0.332191        -1.373367
 O        -1.686600         1.035819        -2.372172
 H         0.559694         2.766721         0.661034
 H         0.025113         3.094084        -0.983985
 H        -1.102448         3.389868         0.395988
 H        -2.634359         0.826545         1.427529
 H        -3.019837         1.581004        -0.335313
 H        -2.697523        -1.162241        -0.884084
 H        -1.314039        -1.761092         1.103991
 H         0.021298        -1.647617        -0.035906
 H        -0.121953        -0.113832        -1.799353
 H        -0.993024         1.630715        -2.813275
