19
Iteration:  1756
 C         0.000625         2.527141        -0.122328
 C        -0.746222         1.193068        -0.147323
 C        -2.085431         0.783046         0.612162
 C        -1.835946        -0.451346        -0.350233
 C        -0.630170        -1.197488         0.139582
 C         0.081070         0.050937         0.596917
 O         0.845791         0.296342         1.542999
 C        -1.259012         0.477107        -1.412107
 O        -2.346854         1.188510        -2.121420
 H         0.197439         2.838689        -1.117091
 H        -0.714788         3.162406         0.426009
 H         0.811447         2.288398         0.681965
 H        -2.057887         0.430171         1.731714
 H        -2.946697         1.473546         0.354735
 H        -2.740598        -0.999737        -0.646297
 H        -0.800837        -1.833942         0.965164
 H        -0.230809        -1.748394        -0.665333
 H        -0.483370         0.308958        -2.176713
 H        -1.809820         1.747365        -2.757994
