19
Iteration:  3275
 C        -0.478756         2.694379         0.045009
 C        -0.900214         1.237550         0.014550
 C        -2.391563         0.698201         0.224828
 C        -1.934852        -0.547412        -0.487007
 C        -0.958205        -1.052237         0.546106
 C        -0.153692         0.179336         0.805964
 O         1.005411         0.209707         1.312024
 C        -0.932220         0.330505        -1.280574
 O        -1.370515         1.165067        -2.358009
 H         0.623199         2.843394         0.150268
 H        -0.977374         3.325990        -0.748616
 H        -0.966846         3.266620         0.973675
 H        -2.882204         0.574676         1.204197
 H        -3.081605         1.250996        -0.461099
 H        -2.629060        -1.234593        -1.001114
 H        -1.370885        -1.520434         1.442210
 H        -0.302414        -1.759374         0.015234
 H         0.182963        -0.152312        -1.306010
 H        -2.217111         0.938753        -2.630920
