19
Iteration:   290
 C        -0.246741         2.667873        -0.103317
 C        -0.696180         1.218512        -0.064924
 C        -1.711972         0.678837         0.964023
 C        -2.023970        -0.439554        -0.020712
 C        -0.753720        -1.272515         0.124001
 C         0.295721         0.028343         0.107991
 O         1.521846        -0.119983         0.290512
 C        -1.654070         0.567297        -1.167578
 O        -2.687231         1.524928        -1.391468
 H        -0.395955         3.129743        -1.076442
 H        -0.868037         3.253570         0.655513
 H         0.774379         2.677250         0.220170
 H        -1.327545         0.567122         2.054689
 H        -2.459755         1.514155         1.086440
 H        -2.979211        -1.044392        -0.086049
 H        -0.687869        -1.733400         1.131586
 H        -0.451543        -1.893198        -0.684658
 H        -1.262929         0.088524        -2.043801
 H        -2.682138         1.586105        -2.396818
