19
Iteration:  2303charge 0 multiplicity 1
 C        -0.134213         2.694944        -0.238666
 C        -0.717928         1.212668        -0.066312
 C        -2.200691         0.716662         0.400313
 C        -1.916425        -0.579349        -0.445647
 C        -0.679329        -1.165676         0.228456
 C        -0.054145         0.206645         0.810308
 O         0.803263         0.222322         1.673987
 C        -1.146834         0.386735        -1.427516
 O        -2.017560         1.197256        -2.122495
 H        -0.915776         3.395259        -0.036815
 H         0.723814         2.675913         0.491239
 H         0.267267         2.701678        -1.267501
 H        -2.424271         0.595286         1.467824
 H        -2.982306         1.348649         0.034809
 H        -2.769411        -1.148562        -0.753622
 H        -0.898352        -1.926982         1.049841
 H         0.081598        -1.579921        -0.545649
 H        -0.426231        -0.122291        -2.193306
 H        -1.521859         1.690132        -2.848690
