19
Iteration:  1956charge 0 multiplicity 1
 C        -0.294168         2.598780         0.057622
 C        -0.731987         1.157157         0.028412
 C        -2.200972         0.759895         0.377585
 C        -1.945612        -0.492894        -0.435108
 C        -0.820231        -1.077024         0.350815
 C         0.009730         0.111358         0.705630
 O         1.054396         0.258923         1.278788
 C        -1.146016         0.405360        -1.347956
 O        -1.971824         1.216961        -2.191315
 H         0.466749         2.619072         0.829714
 H         0.144714         2.731178        -0.931373
 H        -1.163963         3.211685         0.301393
 H        -2.344640         0.724777         1.572851
 H        -2.782818         1.595018        -0.017738
 H        -2.681440        -1.214269        -0.826811
 H        -1.178427        -1.627359         1.176892
 H        -0.187001        -1.722810        -0.185709
 H        -0.318076        -0.064440        -1.994256
 H        -2.200107         0.601665        -2.834104
