19
Iteration:  1017charge 0 multiplicity 1
 C        -0.172376         2.619796         0.052265
 C        -0.743419         1.164430         0.025830
 C        -2.172974         0.772541         0.739558
 C        -2.022629        -0.407586        -0.115446
 C        -0.846150        -1.215763         0.533139
 C         0.162765         0.038510         0.479220
 O         1.382666         0.111311         0.391488
 C        -1.355873         0.528704        -1.208666
 O        -2.286379         1.236860        -2.054603
 H         0.193183         2.800392         1.001091
 H         0.705427         2.806477        -0.555501
 H        -1.001201         3.363856        -0.173562
 H        -2.228967         0.733625         1.797259
 H        -2.958921         1.354348         0.324406
 H        -2.824116        -1.112410        -0.406027
 H        -0.969181        -1.438639         1.614866
 H        -0.327745        -2.111993        -0.091178
 H        -0.702709        -0.109043        -1.788885
 H        -2.093481         2.142314        -1.879541
