19
Iteration:  2750charge 0 multiplicity 1
 C        -0.389973         2.786205         0.217707
 C        -0.901995         1.274192         0.138049
 C        -2.404710         0.750168         0.254353
 C        -1.841925        -0.514067        -0.490915
 C        -0.999048        -1.085587         0.607730
 C        -0.077906         0.219570         0.766778
 O         1.041826         0.173587         1.226674
 C        -0.954040         0.346452        -1.411469
 O        -1.523207         1.017730        -2.483622
 H        -1.001281         3.419227         0.887527
 H         0.593306         2.645042         0.643621
 H        -0.460593         3.287716        -0.820710
 H        -2.691678         0.531195         1.248008
 H        -3.169023         1.317005        -0.269371
 H        -2.554683        -1.359518        -0.925000
 H        -1.755414        -1.426456         1.403124
 H        -0.407564        -2.026053         0.432185
 H        -0.176541        -0.294969        -1.979328
 H        -2.295949         1.533125        -2.175917
