19
Iteration:  2800charge 0 multiplicity 1
 C        -0.319394         2.716870         0.067521
 C        -0.824011         1.192941         0.033752
 C        -2.296864         0.742325         0.318364
 C        -2.026138        -0.525101        -0.500604
 C        -0.876420        -1.131689         0.428128
 C        -0.128428         0.156651         0.850233
 O         0.941811         0.334960         1.434563
 C        -1.035517         0.297096        -1.350102
 O        -1.504952         1.119416        -2.445167
 H        -0.136633         3.102803         1.071649
 H         0.648935         2.671679        -0.489593
 H        -1.054061         3.296362        -0.404229
 H        -2.732333         0.397561         1.324083
 H        -2.995793         1.238472        -0.393988
 H        -2.815802        -1.096217        -0.897488
 H        -1.310638        -1.651675         1.261802
 H        -0.326526        -1.958684        -0.004610
 H        -0.185924        -0.105016        -1.818466
 H        -2.461474         1.461987        -2.315752
