19
Iteration:  3815
 C        -0.185807         2.596022         0.098183
 C        -0.899701         1.246715        -0.000317
 C        -2.431570         0.712619         0.126187
 C        -1.938069        -0.566118        -0.539568
 C        -0.987498        -1.094033         0.529279
 C        -0.101854         0.179536         0.898217
 O         0.954886         0.326838         1.526112
 C        -0.952568         0.373692        -1.381560
 O        -1.660484         1.108121        -2.402392
 H         0.349007         2.806430        -0.835647
 H        -0.857554         3.438324         0.229079
 H         0.492222         2.640097         0.880433
 H        -2.941855         0.585517         1.163067
 H        -3.099350         1.373258        -0.510261
 H        -2.548786        -1.238821        -1.133805
 H        -1.297435        -1.362815         1.563951
 H        -0.257624        -1.834187         0.154522
 H         0.062606         0.010849        -1.758494
 H        -1.125824         1.254671        -3.158960
