19
Iteration:  4456
 C        -0.314310         2.630555         0.135198
 C        -0.947629         1.255505         0.087802
 C        -2.395552         0.801388         0.170118
 C        -1.980235        -0.557731        -0.481489
 C        -0.926310        -1.080322         0.583238
 C        -0.101468         0.228023         0.884864
 O         1.019355         0.240113         1.342939
 C        -0.969922         0.330630        -1.328834
 O        -1.553028         1.081770        -2.446873
 H         0.751453         2.518966         0.230290
 H        -0.555437         3.301209        -0.711868
 H        -0.829237         3.145352         1.029345
 H        -3.039656         0.818375         1.074928
 H        -3.122932         1.264840        -0.634226
 H        -2.747365        -1.107031        -1.074401
 H        -1.636979        -1.561494         1.291401
 H        -0.229470        -1.776641         0.067417
 H        -0.020992        -0.099289        -1.688599
 H        -0.874324         1.061948        -3.195574
