19
Iteration:   310
 C        -0.095735         2.548442        -0.208903
 C        -0.615242         1.147985        -0.092516
 C        -1.750012         0.705035         0.984203
 C        -2.025050        -0.364674        -0.064499
 C        -0.641818        -1.199358         0.028017
 C         0.280233        -0.061814         0.142412
 O         1.478803        -0.023740         0.471206
 C        -1.729656         0.628517        -1.174594
 O        -2.848658         1.453392        -1.371436
 H        -0.795381         3.050661        -0.874965
 H        -0.235150         2.995926         0.752352
 H         0.973184         2.632932        -0.448521
 H        -1.401646         0.350080         1.982242
 H        -2.556659         1.459631         1.088991
 H        -2.942706        -1.050767        -0.030582
 H        -0.454122        -1.845284         0.851309
 H        -0.374587        -1.779608        -0.898542
 H        -1.333176         0.296035        -2.119499
 H        -2.520624         2.175865        -1.942877
