19
Iteration:  2444
 C        -0.491587         2.660646         0.168907
 C        -0.892460         1.233437         0.074656
 C        -2.359393         0.850899         0.302301
 C        -2.037562        -0.507687        -0.376323
 C        -0.847711        -1.062167         0.509692
 C        -0.049887         0.139487         0.678720
 O         1.088636         0.164901         1.086764
 C        -1.027826         0.321906        -1.315045
 O        -1.468395         1.125961        -2.332679
 H         0.220598         2.792677         0.951636
 H        -0.083963         3.092602        -0.757041
 H        -1.324206         3.271700         0.528753
 H        -2.795190         0.899829         1.425300
 H        -3.197748         1.333188        -0.250508
 H        -2.817157        -1.104898        -0.838076
 H        -1.208476        -1.459331         1.453553
 H        -0.134610        -1.813152         0.286490
 H        -0.122217        -0.221897        -1.527845
 H        -2.439066         0.928635        -2.534635
