19
Iteration:   283
 C        -0.255875         2.692770        -0.067552
 C        -0.668656         1.213245        -0.033328
 C        -1.746567         0.714200         0.993099
 C        -2.078203        -0.437647        -0.016296
 C        -0.717478        -1.296698         0.186592
 C         0.295032        -0.015972         0.082043
 O         1.479899        -0.112761         0.208077
 C        -1.645457         0.579262        -1.127867
 O        -2.621915         1.525003        -1.436364
 H        -0.319712         3.083128        -1.109902
 H        -1.082367         3.259644         0.507858
 H         0.681362         2.890654         0.505873
 H        -1.352052         0.420019         1.968579
 H        -2.505492         1.483747         0.916995
 H        -3.014355        -0.911370        -0.021941
 H        -0.373512        -1.879770         1.122189
 H        -0.380885        -1.997644        -0.615088
 H        -1.172564         0.215855        -2.116803
 H        -2.878914         1.461020        -2.387553
