19
Iteration:   174charge 0 multiplicity 1
 C        -0.105655         2.644589         0.251991
 C        -0.646481         1.227082         0.164876
 C        -1.811969         0.725436         0.949450
 C        -2.063329        -0.453523        -0.038216
 C        -0.684999        -1.201538         0.177264
 C         0.262917         0.027775         0.046645
 O         1.482876        -0.037817        -0.135826
 C        -1.666916         0.549195        -1.076176
 O        -2.745303         1.379771        -1.520757
 H        -0.282650         3.150773         1.205792
 H         1.041858         2.484374         0.213816
 H        -0.406097         3.389944        -0.496029
 H        -1.670245         0.505959         1.981501
 H        -2.579796         1.472229         0.868381
 H        -2.970253        -0.990793        -0.019223
 H        -0.673666        -1.546917         1.288203
 H        -0.362248        -1.991697        -0.527253
 H        -1.139037         0.084008        -1.964333
 H        -2.645835         1.750677        -2.453357
