19
Iteration:  1694
 C        -0.308672         2.508973        -0.098467
 C        -0.780532         1.143507        -0.014661
 C        -2.141790         0.779334         0.512990
 C        -1.968459        -0.465152        -0.386865
 C        -0.713478        -1.142988         0.365120
 C         0.100327         0.088903         0.647548
 O         1.161636         0.144361         1.295335
 C        -1.223509         0.459954        -1.356244
 O        -2.156784         1.284667        -2.189400
 H         0.730363         2.607191        -0.005227
 H        -0.559555         2.995250        -1.059219
 H        -0.577601         3.242090         0.661412
 H        -2.378752         0.630590         1.488064
 H        -2.818348         1.486496         0.079997
 H        -2.813465        -1.133729        -0.699481
 H        -0.935721        -1.691055         1.297608
 H        -0.196530        -1.843925        -0.364825
 H        -0.360986         0.178639        -1.997074
 H        -2.210637         2.200388        -1.798190
