19
Iteration:    36
 C        -0.002172         2.589356        -0.065165
 C        -0.637876         1.207219        -0.031263
 C        -1.596354         0.658559         1.009620
 C        -1.903022        -0.395437        -0.073077
 C        -0.656051        -1.196007        -0.207476
 C         0.304580        -0.055126         0.057160
 O         1.446006        -0.055037         0.333984
 C        -1.814293         0.663119        -1.178528
 O        -2.962808         1.502518        -1.166558
 H         1.139819         2.521250        -0.028322
 H        -0.284682         3.036363        -0.964645
 H        -0.435241         3.179227         0.802472
 H        -1.254231         0.336872         2.037907
 H        -2.513662         1.287592         1.153995
 H        -2.871125        -0.931036         0.057987
 H        -0.630486        -1.857729         0.584433
 H        -0.533226        -1.867075        -1.097357
 H        -1.578614         0.345721        -2.231802
 H        -3.589164         1.146348        -1.803144
