19
Iteration:  2748charge 0 multiplicity 1
 C        -0.392174         2.798848         0.234351
 C        -0.899188         1.284572         0.146274
 C        -2.391092         0.766150         0.265751
 C        -1.846129        -0.530620        -0.505477
 C        -0.997371        -1.099265         0.628438
 C        -0.082664         0.227890         0.769262
 O         1.046441         0.173431         1.221774
 C        -0.948869         0.324995        -1.440919
 O        -1.517740         1.015378        -2.486147
 H        -1.008059         3.430699         0.829876
 H         0.617304         2.720526         0.646211
 H        -0.430472         3.180113        -0.792605
 H        -2.770822         0.470111         1.293060
 H        -3.280071         1.319043        -0.208897
 H        -2.585608        -1.349609        -0.897150
 H        -1.825958        -1.394581         1.340704
 H        -0.404983        -2.019515         0.401954
 H        -0.179738        -0.227863        -2.006679
 H        -2.355340         1.589209        -2.228526
