19
Iteration:    61charge 0 multiplicity 1
 C         0.010230         2.564680        -0.190233
 C        -0.624908         1.188622        -0.219478
 C        -1.671810         0.606402         1.014177
 C        -1.970843        -0.485255        -0.059686
 C        -0.617832        -1.196074        -0.244985
 C         0.295156        -0.001785        -0.011826
 O         1.404072        -0.010403         0.511783
 C        -1.735228         0.691028        -1.084682
 O        -2.983819         1.466930        -1.091042
 H         0.861712         2.551314        -0.935885
 H        -0.688398         3.450160        -0.463848
 H         0.375131         2.663791         0.865886
 H        -1.253385         0.353695         2.035820
 H        -2.447394         1.392728         1.163692
 H        -2.957320        -1.008942         0.071996
 H        -0.528024        -2.095614         0.460839
 H        -0.459439        -1.721471        -1.232699
 H        -1.612947         0.431994        -2.196121
 H        -2.721674         2.276324        -1.609147
