19
Iteration:   735
 C        -0.185997         2.603397        -0.058098
 C        -0.785801         1.198925         0.106134
 C        -2.098463         0.791433         0.901682
 C        -2.064378        -0.455056        -0.025170
 C        -0.674521        -1.201683         0.408234
 C         0.174881         0.029668         0.292445
 O         1.365656         0.012170         0.249189
 C        -1.497105         0.483697        -1.161687
 O        -2.249440         1.432195        -1.826277
 H        -0.726353         3.244720         0.593341
 H         0.862348         2.612653         0.200209
 H        -0.370692         2.928762        -1.092657
 H        -2.060520         0.734362         2.112693
 H        -2.923029         1.537621         0.774068
 H        -2.994452        -1.038807        -0.161847
 H        -0.683695        -1.549900         1.473407
 H        -0.421474        -2.063961        -0.249703
 H        -0.933492        -0.052554        -1.982188
 H        -2.502352         1.147926        -2.685148
