19
Iteration:   775
 C        -0.286236         2.544441         0.116675
 C        -0.789374         1.176300         0.130437
 C        -2.135645         0.888913         0.842794
 C        -2.038691        -0.316074        -0.116860
 C        -0.747472        -1.137392         0.597544
 C         0.164370         0.000228         0.357808
 O         1.325592         0.006505        -0.005105
 C        -1.314515         0.440005        -1.160373
 O        -2.243805         1.273341        -1.834265
 H         0.332700         2.713062         1.020268
 H         0.401485         2.782534        -0.705114
 H        -1.201108         3.310647        -0.019027
 H        -2.116942         0.663530         1.882323
 H        -2.963142         1.579634         0.653959
 H        -2.864698        -0.961051        -0.479442
 H        -0.964823        -1.352197         1.620630
 H        -0.201589        -1.975380         0.105524
 H        -0.530773         0.032864        -1.843496
 H        -1.905528         1.578443        -2.718464
