19
Iteration:  2731
 C        -0.424952         2.737922         0.248056
 C        -0.865570         1.292652         0.222903
 C        -2.310282         0.763940         0.276690
 C        -1.943595        -0.501437        -0.523587
 C        -0.988104        -1.082902         0.599790
 C        -0.132853         0.150344         0.868136
 O         1.049329         0.218726         1.168710
 C        -1.009435         0.263299        -1.486029
 O        -1.496687         1.032681        -2.561432
 H        -1.295225         3.406005         0.565097
 H         0.445321         2.938104         0.907906
 H        -0.218739         3.179228        -0.767910
 H        -2.546199         0.644138         1.337012
 H        -2.925534         1.454772        -0.247876
 H        -2.679405        -1.096833        -1.010424
 H        -1.332315        -1.341577         1.592243
 H        -0.333445        -1.944162         0.459715
 H         0.068675        -0.020142        -1.553983
 H        -2.389096         1.277470        -2.156779
