19
Iteration:  3191
 C        -0.164031         2.586205         0.009308
 C        -0.729938         1.216955        -0.105942
 C        -2.241727         0.773027         0.225332
 C        -1.865725        -0.586922        -0.517440
 C        -0.733583        -1.208182         0.368529
 C        -0.057969         0.163795         0.842404
 O         0.619289         0.374198         1.797028
 C        -0.950461         0.445954        -1.394348
 O        -1.900760         1.158829        -2.371003
 H         0.886984         2.482248        -0.226323
 H        -0.566945         3.126016        -0.893444
 H        -0.303255         3.049845         0.902258
 H        -2.649230         0.634449         1.245456
 H        -2.914531         1.198440        -0.501294
 H        -2.651069        -1.145981        -0.929730
 H        -1.012522        -1.806134         1.250880
 H        -0.015589        -1.819431        -0.206355
 H        -0.139356         0.126364        -1.875014
 H        -1.698385         0.957232        -3.365604
