19
Iteration:  4155
 C        -0.538250         2.715510         0.183244
 C        -0.902921         1.278928         0.030016
 C        -2.418300         0.906196         0.263006
 C        -1.888156        -0.469364        -0.463534
 C        -0.989548        -1.092545         0.589734
 C        -0.089029         0.118170         0.799985
 O         1.015465         0.121366         1.268071
 C        -0.966038         0.359148        -1.298452
 O        -1.423081         0.952182        -2.514156
 H         0.425266         2.964339        -0.402973
 H        -1.333964         3.319062        -0.304183
 H        -0.472678         3.198059         1.201270
 H        -2.513453         0.820184         1.357319
 H        -3.047311         1.650851        -0.189191
 H        -2.660516        -1.064151        -1.093391
 H        -1.752156        -1.331177         1.381605
 H        -0.341387        -1.975335         0.396620
 H         0.030793        -0.193634        -1.506691
 H        -0.771859         1.641480        -2.828028
