19
Iteration:  1962
 C        -0.280088         2.508342        -0.000018
 C        -0.703161         1.178311         0.056611
 C        -2.235906         0.782784         0.445537
 C        -1.950344        -0.481744        -0.452463
 C        -0.776893        -1.098315         0.308618
 C         0.002741         0.145149         0.652768
 O         1.003270         0.258957         1.340146
 C        -1.094565         0.440494        -1.377305
 O        -1.999247         1.213029        -2.155701
 H         0.562188         2.767360         0.711876
 H         0.029220         2.746000        -1.052898
 H        -1.014913         3.316986         0.217916
 H        -2.348266         0.688112         1.475304
 H        -2.942332         1.553077         0.092627
 H        -2.698550        -1.173202        -0.851233
 H        -1.046869        -1.748995         1.211491
 H        -0.125333        -1.885732        -0.224481
 H        -0.301742        -0.114327        -1.869479
 H        -2.196414         0.619468        -2.929182
