19
Iteration:  1055charge 0 multiplicity 1
 C        -0.428720         2.642000         0.058508
 C        -0.767976         1.246312         0.159978
 C        -2.161338         0.811107         0.757634
 C        -2.046867        -0.400226        -0.080460
 C        -0.793080        -1.058411         0.489805
 C         0.120213         0.041993         0.404092
 O         1.323323        -0.046094         0.236830
 C        -1.282661         0.395211        -1.124800
 O        -2.008359         1.274045        -1.964697
 H         0.570084         2.902058         0.620288
 H        -0.624735         3.049912        -0.962293
 H        -1.150068         3.145538         0.700269
 H        -2.419856         0.633769         1.851831
 H        -3.003372         1.418320         0.293927
 H        -2.915331        -0.927552        -0.439904
 H        -0.921716        -1.308040         1.548225
 H        -0.470130        -1.929098         0.070797
 H        -0.533743        -0.052928        -1.797218
 H        -1.710319         1.291887        -2.908116
