19
Iteration:  4517charge 0 multiplicity 1
 C        -0.277956         2.596911        -0.093613
 C        -0.760360         1.169736        -0.077143
 C        -2.250918         0.788076         0.325432
 C        -1.904576        -0.481560        -0.528558
 C        -0.881724        -1.095004         0.456930
 C        -0.027131         0.124642         0.858038
 O         0.773849         0.266043         1.710877
 C        -0.973681         0.347870        -1.443171
 O        -1.772320         1.159506        -2.411260
 H         0.670952         2.726797         0.574800
 H        -0.221217         3.070936        -1.112133
 H        -1.069922         3.169786         0.409221
 H        -2.703516         0.616436         1.347582
 H        -2.919808         1.503728        -0.167379
 H        -2.660910        -1.157833        -0.993050
 H        -1.306341        -1.594725         1.340206
 H        -0.137909        -1.895203         0.123685
 H        -0.185429        -0.253515        -1.991703
 H        -1.054993         1.609649        -2.958857
