19
Iteration:   948
 C        -0.086621         2.494028        -0.246787
 C        -0.679123         1.162624        -0.143263
 C        -1.806146         0.815689         0.834531
 C        -1.918655        -0.395323        -0.163206
 C        -0.620732        -1.225441         0.071380
 C         0.207182         0.069078         0.405972
 O         1.180302         0.111347         1.127605
 C        -1.572656         0.527707        -1.296046
 O        -2.554409         1.354991        -1.902794
 H        -0.764312         3.349025         0.013446
 H         0.724104         2.550616         0.464661
 H         0.216524         2.629893        -1.189021
 H        -1.557445         0.623650         1.875544
 H        -2.705384         1.445400         0.716233
 H        -2.889330        -0.945878        -0.373091
 H        -0.926781        -1.774433         1.033065
 H        -0.308130        -1.951796        -0.694101
 H        -1.121778         0.048993        -2.165143
 H        -3.438764         1.200629        -1.500766
