19
Iteration:   989
 C        -0.030138         2.538964         0.009420
 C        -0.751721         1.269838        -0.021368
 C        -2.077564         0.817911         0.774274
 C        -1.997222        -0.412701        -0.202227
 C        -0.750135        -1.135459         0.248926
 C         0.148015         0.095480         0.419984
 O         1.324152         0.096644         0.713469
 C        -1.437610         0.472535        -1.247875
 O        -2.442929         1.144153        -1.974092
 H        -0.259557         3.111787         1.019397
 H         1.047979         2.257274        -0.136661
 H        -0.173738         3.285326        -0.815587
 H        -1.935562         0.817785         1.918141
 H        -3.002279         1.482138         0.582170
 H        -2.872118        -1.021142        -0.396282
 H        -0.800270        -1.464633         1.287867
 H        -0.301693        -1.864318        -0.328886
 H        -0.739024        -0.083054        -1.953432
 H        -2.787704         1.873191        -1.469533
