19
Iteration:   134
 C        -0.234243         2.585862        -0.047695
 C        -0.707301         1.150776         0.013377
 C        -1.699186         0.647076         1.028303
 C        -2.016424        -0.452408        -0.054777
 C        -0.653433        -1.223374        -0.035156
 C         0.287159        -0.007202         0.098816
 O         1.488595        -0.041238         0.189414
 C        -1.700692         0.653519        -1.081418
 O        -2.684940         1.581572        -1.372896
 H        -1.012893         3.387763        -0.000566
 H         0.524899         2.754596         0.641679
 H         0.340211         2.598018        -1.003532
 H        -1.406958         0.359339         2.061304
 H        -2.482452         1.436994         1.117981
 H        -2.983085        -1.036315        -0.158957
 H        -0.447417        -1.833190         0.765039
 H        -0.470095        -1.891207        -0.911630
 H        -1.257718         0.333896        -2.015876
 H        -3.449815         1.013079        -1.301544
