19
Iteration:  4309
 C        -0.172948         2.580246        -0.074608
 C        -0.680455         1.157348        -0.117368
 C        -2.253801         0.815574         0.296907
 C        -1.902089        -0.474454        -0.537406
 C        -0.699451        -1.148416         0.399544
 C        -0.058854         0.153650         0.816946
 O         0.597739         0.284259         1.786402
 C        -1.062551         0.371680        -1.403921
 O        -1.833351         1.145100        -2.389497
 H         0.912490         2.583548        -0.138899
 H        -0.576632         3.158651        -0.891318
 H        -0.482750         3.007765         0.835785
 H        -2.766032         0.742624         1.409967
 H        -2.800172         1.569106        -0.246771
 H        -2.527691        -1.321312        -0.796907
 H        -1.176604        -1.656598         1.250877
 H         0.051228        -1.840024        -0.081145
 H        -0.152718        -0.131403        -1.806722
 H        -1.239679         1.564141        -3.102819
