19
Iteration:  4286
 C        -0.189086         2.687152        -0.050031
 C        -0.666448         1.265198        -0.107278
 C        -2.133614         0.865534         0.276294
 C        -1.926010        -0.466755        -0.459226
 C        -0.787350        -1.229100         0.274308
 C        -0.083978         0.189025         0.864145
 O         0.588721         0.247242         1.825766
 C        -0.981671         0.342269        -1.449695
 O        -1.835998         1.026364        -2.360077
 H         0.917489         2.664810        -0.068360
 H        -0.522018         3.095964        -0.984291
 H        -0.547390         3.198083         0.722379
 H        -2.479542         0.799544         1.483430
 H        -3.087693         1.313387        -0.181970
 H        -2.731735        -1.077962        -1.015702
 H        -0.952870        -1.961836         1.070603
 H        -0.132941        -1.682962        -0.500201
 H        -0.160499        -0.259102        -1.875077
 H        -1.614884         1.703135        -2.934315
