19
Iteration:  1921
 C        -0.397754         2.685994         0.255111
 C        -0.879236         1.205888         0.005610
 C        -2.307442         0.771527         0.412935
 C        -1.936924        -0.538919        -0.297450
 C        -0.845791        -1.104396         0.576625
 C         0.030622         0.059611         0.548489
 O         1.147065         0.151740         1.018100
 C        -1.097240         0.459818        -1.322744
 O        -1.793645         1.217999        -2.363237
 H        -0.034336         2.814464         1.237083
 H         0.474874         2.986356        -0.438002
 H        -1.156223         3.512764         0.011773
 H        -2.539121         0.739402         1.594549
 H        -3.016567         1.441986        -0.151238
 H        -2.635330        -1.277122        -0.715474
 H        -1.135609        -1.181915         1.639952
 H        -0.428596        -2.042588         0.233212
 H        -0.163192         0.046980        -1.873295
 H        -2.281621         0.582829        -2.842607
