19
Iteration:  3027charge 0 multiplicity 1
 C        -0.369755         2.720009         0.173374
 C        -0.927879         1.238383         0.141290
 C        -2.520816         0.788470         0.167352
 C        -1.954109        -0.532085        -0.478907
 C        -0.936070        -1.065992         0.570713
 C        -0.135784         0.156567         0.787508
 O         1.030736         0.260034         1.246279
 C        -0.971182         0.364591        -1.266108
 O        -1.367260         0.995375        -2.453546
 H         0.645059         2.869407        -0.230910
 H        -1.041624         3.265123        -0.519063
 H        -0.396911         3.133093         1.139341
 H        -3.026938         0.869896         1.086966
 H        -2.973670         1.284758        -0.639413
 H        -2.557621        -1.237387        -0.994337
 H        -1.477527        -1.505241         1.421865
 H        -0.246394        -1.830942         0.129550
 H         0.064721        -0.138710        -1.379791
 H        -2.276537         1.173886        -2.513441
