19
Iteration:  4115
 C        -0.407965         2.682426         0.214034
 C        -0.855165         1.275204         0.066564
 C        -2.347704         0.909924         0.164550
 C        -1.911535        -0.494960        -0.540745
 C        -0.970513        -1.113698         0.561361
 C        -0.140457         0.191999         0.875439
 O         0.977213         0.224712         1.285114
 C        -0.965434         0.282152        -1.370841
 O        -1.574005         0.977549        -2.400750
 H         0.677369         2.759157         0.280837
 H        -0.783806         3.223338        -0.661654
 H        -0.762075         3.131811         1.227754
 H        -2.774861         0.877343         1.141687
 H        -3.027340         1.351630        -0.538739
 H        -2.416513        -1.237065        -1.078050
 H        -1.371703        -1.423258         1.520779
 H        -0.395889        -2.009036         0.200133
 H        -0.074992        -0.139982        -1.766389
 H        -0.809958         1.441621        -2.792220
