19
Iteration:  2779
 C        -0.406610         2.561919         0.113268
 C        -0.885845         1.185759         0.068219
 C        -2.412309         0.923899         0.204477
 C        -1.921998        -0.519449        -0.437741
 C        -0.905548        -1.188028         0.520570
 C        -0.095819         0.163462         0.750961
 O         0.990236         0.294736         1.321968
 C        -0.942035         0.437261        -1.348022
 O        -1.513260         1.054675        -2.391359
 H        -0.711105         2.973772         1.066654
 H         0.687948         2.661002         0.024812
 H        -0.947894         3.110367        -0.600476
 H        -2.693494         0.871906         1.327157
 H        -3.021941         1.550709        -0.546553
 H        -2.646804        -1.210006        -0.854567
 H        -1.317553        -1.778637         1.319922
 H        -0.209138        -1.938839         0.123300
 H        -0.069354        -0.024161        -1.734770
 H        -2.322298         1.428248        -2.150139
