19
Iteration:  4553charge 0 multiplicity 1
 C        -0.158009         2.710617        -0.083824
 C        -0.759620         1.266085        -0.090137
 C        -2.265970         0.919591         0.363785
 C        -1.858919        -0.476881        -0.493380
 C        -0.783839        -1.255342         0.289578
 C        -0.080231         0.110029         0.823411
 O         0.615998         0.268277         1.742102
 C        -0.995261         0.331411        -1.401019
 O        -1.792722         0.979522        -2.373535
 H         0.768398         2.768571         0.399802
 H         0.006524         3.163781        -1.052580
 H        -0.837961         3.297870         0.606368
 H        -2.529739         0.804238         1.559218
 H        -2.998983         1.441636        -0.468074
 H        -2.755750        -1.021897        -0.862432
 H        -1.014605        -1.886100         1.203944
 H         0.123851        -1.483382        -0.403617
 H        -0.143021        -0.237195        -1.816022
 H        -1.457637         1.924941        -2.622182
