19
Iteration:  4987
 C        -0.416695         2.706520         0.096971
 C        -0.865151         1.220827         0.059262
 C        -2.406749         0.775750         0.198357
 C        -1.911485        -0.515926        -0.465229
 C        -1.033737        -1.166930         0.635516
 C        -0.134463         0.149073         0.773987
 O         1.046689         0.212416         1.109367
 C        -0.922669         0.359335        -1.290973
 O        -1.533651         1.105919        -2.238011
 H        -1.244034         3.373451         0.289048
 H         0.317571         2.985381         0.834362
 H         0.004344         3.024524        -0.828136
 H        -2.703407         0.832103         1.180843
 H        -3.003159         1.407718        -0.456075
 H        -2.667782        -1.198989        -1.118452
 H        -1.660763        -1.212209         1.520981
 H        -0.606609        -2.171067         0.474739
 H         0.058081        -0.077430        -1.708700
 H        -0.879015         1.605232        -2.895221
