19
Iteration:  2759charge 0 multiplicity 1
 C        -0.413891         2.706596         0.169388
 C        -0.897771         1.277243         0.058477
 C        -2.390802         0.716271         0.210011
 C        -1.892694        -0.490217        -0.474901
 C        -0.966192        -1.056517         0.570433
 C        -0.097538         0.146805         0.789525
 O         1.039048         0.191649         1.244684
 C        -0.962675         0.383258        -1.317527
 O        -1.537461         1.026281        -2.463614
 H        -0.918039         3.185227         0.985964
 H         0.634825         2.659955         0.487813
 H        -0.414451         3.378186        -0.687080
 H        -2.730774         0.729271         1.272887
 H        -3.003794         1.402554        -0.435535
 H        -2.546964        -1.210041        -1.071641
 H        -1.390640        -1.255261         1.578631
 H        -0.338172        -1.933520         0.289573
 H        -0.024193        -0.135235        -1.577187
 H        -2.297625         1.496859        -2.087294
