19
Iteration:  1484
 C        -0.094428         2.602523        -0.187469
 C        -0.703794         1.177620        -0.210876
 C        -2.054340         0.736636         0.603714
 C        -1.866783        -0.477775        -0.350549
 C        -0.565231        -1.136858         0.138247
 C         0.099943         0.086248         0.579880
 O         0.953636         0.080870         1.475788
 C        -1.359514         0.555686        -1.389121
 O        -2.389609         1.319137        -1.922437
 H        -0.093449         2.937156        -1.183742
 H        -0.621280         3.259668         0.472978
 H         0.977382         2.530748         0.247628
 H        -1.742276         0.555756         1.601951
 H        -2.976136         1.281655         0.484395
 H        -2.763641        -1.094365        -0.595478
 H        -0.713107        -1.909266         0.958590
 H         0.157130        -1.694073        -0.598742
 H        -0.665696         0.095461        -2.179471
 H        -2.545105         1.125665        -2.920634
