19
Iteration:  1515
 C        -0.220708         2.639081        -0.145545
 C        -0.713057         1.103600        -0.106942
 C        -2.115651         0.730330         0.646978
 C        -1.973279        -0.532552        -0.336011
 C        -0.668108        -1.284760         0.158836
 C         0.147984        -0.004844         0.571791
 O         1.040339         0.261571         1.332739
 C        -1.342229         0.506570        -1.325394
 O        -2.152159         1.430891        -2.005198
 H        -0.807426         3.236415        -0.912320
 H        -0.203942         3.138815         0.833198
 H         0.819876         2.727006        -0.620739
 H        -1.941788         0.599662         1.726798
 H        -2.960059         1.390117         0.558385
 H        -2.791040        -1.158166        -0.698851
 H        -0.873425        -2.007551         0.967160
 H        -0.121895        -1.781872        -0.664963
 H        -0.582310        -0.079739        -1.973610
 H        -2.607332         0.988887        -2.678371
