19
Iteration:  4958
 C        -0.500934         2.721479         0.079328
 C        -0.842864         1.181055         0.119299
 C        -2.416307         0.832392         0.243610
 C        -1.977379        -0.439266        -0.467153
 C        -0.908279        -1.066056         0.539783
 C        -0.055654         0.170182         0.861422
 O         1.087125         0.068218         1.247446
 C        -1.040335         0.389588        -1.320575
 O        -1.539903         1.025765        -2.410918
 H        -1.443440         3.255778         0.303706
 H         0.265923         3.080524         0.759291
 H        -0.143160         3.076469        -0.934572
 H        -2.783857         0.916540         1.417053
 H        -2.901373         1.591605        -0.332710
 H        -2.558235        -1.037363        -1.038885
 H        -1.373291        -1.479292         1.440239
 H        -0.322465        -1.909845         0.204491
 H        -0.121970        -0.071898        -1.656688
 H        -0.940154         1.600570        -2.885550
