19
Iteration:   389
 C        -0.087503         2.559578        -0.244628
 C        -0.711950         1.211191        -0.190454
 C        -1.693703         0.750126         0.952140
 C        -1.965977        -0.399210        -0.072051
 C        -0.638510        -1.338285         0.012041
 C         0.316046        -0.030665         0.153641
 O         1.423374         0.026499         0.697941
 C        -1.723483         0.573842        -1.246692
 O        -2.851173         1.463371        -1.423986
 H         0.723314         2.698012         0.466809
 H         0.260762         2.566437        -1.334088
 H        -0.822511         3.285111        -0.149368
 H        -1.317571         0.485483         2.027510
 H        -2.594943         1.424830         1.086478
 H        -2.949006        -0.913060        -0.010571
 H        -0.549728        -2.044994         0.894549
 H        -0.514553        -1.813704        -0.918135
 H        -1.392455         0.222902        -2.190857
 H        -2.424749         2.342738        -1.296849
