19
Iteration:   932charge 0 multiplicity 1
 C        -0.101868         2.550620        -0.384436
 C        -0.611003         1.174176        -0.218580
 C        -1.870112         0.737022         0.844181
 C        -1.982191        -0.461854        -0.169838
 C        -0.645039        -1.162712         0.113789
 C         0.221937        -0.006692         0.341202
 O         1.094535         0.098755         1.184569
 C        -1.481743         0.521688        -1.304967
 O        -2.517588         1.427944        -1.738840
 H        -0.967655         3.229678        -0.587995
 H         0.364716         2.876295         0.590176
 H         0.621602         2.619982        -1.340238
 H        -1.527326         0.485836         1.892018
 H        -2.616615         1.559239         0.799160
 H        -2.852284        -1.087401        -0.149563
 H        -0.471109        -1.848461         0.893335
 H        -0.286850        -1.608470        -0.830966
 H        -0.926264         0.111923        -2.209823
 H        -3.412783         1.024637        -1.507446
