19
Iteration:  2611
 C        -0.272084         2.566930        -0.105742
 C        -0.788009         1.183886        -0.111593
 C        -2.235008         0.803283         0.342123
 C        -1.887474        -0.460403        -0.479167
 C        -0.762500        -1.125861         0.378723
 C        -0.114131         0.164167         0.872764
 O         0.815454         0.260626         1.669593
 C        -1.026906         0.350718        -1.484577
 O        -1.775201         1.140764        -2.317885
 H        -0.416329         3.157668        -1.036867
 H        -0.713532         3.158756         0.687068
 H         0.837125         2.604096        -0.010418
 H        -2.510296         0.740179         1.518948
 H        -3.011457         1.543975        -0.136205
 H        -2.486572        -1.141837        -1.007852
 H        -0.986112        -1.975282         1.015681
 H        -0.068387        -1.650307        -0.314553
 H        -0.123555        -0.037227        -2.024633
 H        -2.608287         1.397603        -1.928218
