19
Iteration:  2911
 C        -0.133630         2.614600        -0.013569
 C        -0.799466         1.222786        -0.081088
 C        -2.354385         0.614836         0.353316
 C        -1.870255        -0.483738        -0.531626
 C        -0.808003        -1.238269         0.425909
 C        -0.064551         0.199956         0.815750
 O         0.739696         0.398733         1.724979
 C        -1.013918         0.440485        -1.413024
 O        -1.707232         1.124810        -2.523240
 H         0.767004         2.753325         0.625884
 H         0.246573         2.882819        -1.035723
 H        -0.838732         3.366412         0.356153
 H        -2.234139         0.285106         1.448004
 H        -3.266192         1.239200         0.039188
 H        -2.617825        -1.200723        -0.940301
 H        -1.419475        -1.621220         1.223974
 H        -0.433417        -1.989038        -0.241552
 H        -0.135350         0.039357        -1.808413
 H        -2.531533         1.438755        -2.229389
