19
Iteration:  3030
 C        -0.373123         2.688004         0.188111
 C        -0.947700         1.235823         0.137899
 C        -2.517011         0.778768         0.161927
 C        -1.954135        -0.523502        -0.459236
 C        -0.933383        -1.039725         0.555666
 C        -0.123312         0.170523         0.794288
 O         1.026404         0.263176         1.245253
 C        -0.964001         0.331208        -1.289333
 O        -1.357071         0.998963        -2.445853
 H         0.621548         2.879300        -0.321229
 H        -1.039354         3.264405        -0.558769
 H        -0.324729         3.132091         1.216423
 H        -3.146552         0.863797         1.079126
 H        -2.919493         1.466834        -0.583701
 H        -2.577342        -1.261230        -0.935788
 H        -1.515961        -1.500527         1.365125
 H        -0.244193        -1.775709         0.094635
 H         0.071333        -0.081474        -1.429656
 H        -2.340594         1.133253        -2.460929
