19
Iteration:  3082
 C        -0.363470         2.689454         0.048672
 C        -0.858357         1.278319         0.004200
 C        -2.315386         0.684557         0.268134
 C        -1.931575        -0.548047        -0.435787
 C        -0.968338        -1.157891         0.561975
 C        -0.085394         0.155023         0.747543
 O         0.856100         0.282946         1.530933
 C        -0.900269         0.464546        -1.381721
 O        -1.521078         1.017513        -2.560932
 H         0.360622         2.946357        -0.714023
 H        -1.122854         3.498583         0.065389
 H         0.152245         2.742401         0.941993
 H        -2.589889         0.702426         1.312734
 H        -3.127859         1.206054        -0.206384
 H        -2.707487        -1.077477        -0.913352
 H        -1.353175        -1.355181         1.578087
 H        -0.448941        -2.070167         0.171660
 H         0.082781         0.010310        -1.844347
 H        -1.999924         1.804524        -2.342028
