19
Iteration:  2374charge 0 multiplicity 1
 C        -0.207082         2.714707         0.145411
 C        -0.795357         1.274337        -0.072584
 C        -2.370175         0.731465         0.287582
 C        -1.971660        -0.529342        -0.490018
 C        -0.787823        -1.158563         0.396580
 C        -0.038919         0.180962         0.753688
 O         1.007738         0.253291         1.384618
 C        -1.084170         0.311405        -1.354241
 O        -1.781491         1.147296        -2.251762
 H        -0.333209         3.088606         1.203665
 H         0.811319         2.814778        -0.257935
 H        -0.896615         3.307274        -0.483383
 H        -2.721445         0.782034         1.230243
 H        -2.976771         1.392530        -0.298871
 H        -2.882256        -1.132964        -0.883262
 H        -1.026919        -1.627309         1.342696
 H        -0.224735        -1.915566        -0.164848
 H        -0.166413        -0.177202        -1.752344
 H        -2.607982         0.774721        -2.724425
