19
Iteration:  4526
 C        -0.293457         2.565373        -0.063652
 C        -0.713385         1.184866        -0.069566
 C        -2.262695         0.791199         0.280910
 C        -1.902057        -0.465694        -0.474156
 C        -0.832424        -1.112907         0.430345
 C        -0.043444         0.145730         0.757836
 O         0.740619         0.231972         1.774675
 C        -1.050292         0.406295        -1.435618
 O        -1.747415         1.106145        -2.409630
 H         0.776859         2.773750         0.410576
 H        -0.150172         2.987573        -1.142284
 H        -1.055428         3.224404         0.344238
 H        -2.524459         0.717013         1.298004
 H        -2.889330         1.353350        -0.283356
 H        -2.765749        -1.091477        -0.660531
 H        -1.174574        -1.476137         1.374540
 H        -0.092061        -1.705099        -0.100237
 H        -0.146163        -0.137297        -1.919293
 H        -1.180733         1.772887        -2.932074
