19
Iteration:   678
 C        -0.044070         2.557296        -0.215155
 C        -0.705482         1.231182        -0.192058
 C        -1.805720         0.805576         0.842019
 C        -1.940395        -0.428811        -0.092436
 C        -0.688997        -1.171231         0.115527
 C         0.272310        -0.038417         0.240757
 O         1.292191         0.002038         0.869747
 C        -1.592489         0.581650        -1.239436
 O        -2.664840         1.390908        -1.643385
 H        -0.436165         3.224487        -0.930157
 H        -0.274401         3.002375         0.703280
 H         1.101518         2.462310        -0.295135
 H        -1.399653         0.728390         1.992282
 H        -2.705556         1.469334         0.615079
 H        -2.880860        -1.017434        -0.115116
 H        -0.745523        -1.822117         0.938764
 H        -0.408145        -1.726977        -0.833747
 H        -1.217649         0.137547        -2.227117
 H        -3.493263         0.824007        -1.651838
