19
Iteration:   874charge 0 multiplicity 1
 C        -0.057092         2.509914        -0.253362
 C        -0.694392         1.193901        -0.115931
 C        -1.930446         0.710993         0.801434
 C        -2.015013        -0.487841        -0.199378
 C        -0.684935        -1.173390         0.219453
 C         0.216325         0.052266         0.391885
 O         1.313490         0.108905         0.930701
 C        -1.560750         0.508206        -1.259969
 O        -2.589132         1.419011        -1.741673
 H         0.164677         2.665837        -1.307978
 H        -0.705759         3.372955        -0.007681
 H         0.983755         2.636551         0.394943
 H        -1.832606         0.505905         1.835784
 H        -2.702328         1.445715         0.675206
 H        -2.983727        -1.039544        -0.194634
 H        -0.743138        -1.756978         1.196719
 H        -0.191355        -1.870771        -0.569236
 H        -1.059131         0.081873        -2.143078
 H        -2.290978         1.757578        -2.579619
