19
Iteration:   261
 C        -0.280415         2.589270        -0.000931
 C        -0.722520         1.188267         0.106524
 C        -1.870681         0.720308         1.070942
 C        -1.976114        -0.411275         0.056162
 C        -0.758966        -1.213931         0.187866
 C         0.286147        -0.027475         0.139108
 O         1.472671        -0.070716        -0.059883
 C        -1.561537         0.585972        -1.080638
 O        -2.516752         1.555507        -1.571025
 H         0.367501         2.774311        -0.880854
 H        -1.225638         3.234513        -0.140270
 H         0.152502         2.819230         0.979895
 H        -1.560199         0.589269         2.098409
 H        -2.636676         1.460613         0.860788
 H        -2.746191        -1.119419        -0.029083
 H        -0.733494        -1.702680         1.237636
 H        -0.524889        -2.007645        -0.530796
 H        -1.064861         0.059665        -1.975299
 H        -3.184136         0.980586        -1.968594
