19
Iteration:  3468charge 0 multiplicity 1
 C        -0.218677         2.603046        -0.079616
 C        -0.754469         1.227228        -0.122391
 C        -2.304145         0.714183         0.228165
 C        -1.859058        -0.564821        -0.497428
 C        -0.738447        -1.130534         0.366099
 C        -0.065470         0.138290         0.797264
 O         0.635407         0.347187         1.796870
 C        -0.951559         0.422802        -1.412901
 O        -1.722888         1.195024        -2.336620
 H         0.851860         2.592140        -0.114842
 H        -0.651107         3.284027        -0.724873
 H        -0.505491         2.889099         0.961227
 H        -2.451176         0.642352         1.321249
 H        -3.173883         1.148674        -0.335200
 H        -2.697058        -1.311128        -0.973185
 H        -1.061672        -1.742374         1.255512
 H        -0.029284        -1.707838        -0.298861
 H        -0.093587        -0.114293        -1.902618
 H        -2.563578         0.745884        -2.559504
