19
Iteration:   668charge 0 multiplicity 1
 C        -0.022147         2.535582        -0.241027
 C        -0.675718         1.201288        -0.257731
 C        -1.789115         0.797743         0.788547
 C        -1.907411        -0.369849        -0.112358
 C        -0.629875        -1.166304         0.056756
 C         0.219305         0.012177         0.315054
 O         1.270436        -0.012233         0.930870
 C        -1.651152         0.553830        -1.289246
 O        -2.715299         1.401366        -1.544106
 H        -0.095990         2.974590        -1.185477
 H        -0.361438         3.178806         0.510361
 H         1.120233         2.400628        -0.058915
 H        -1.608932         0.563792         1.986737
 H        -2.611076         1.588304         0.793074
 H        -2.794872        -1.027633        -0.248596
 H        -0.614823        -1.918969         0.836856
 H        -0.195513        -1.657242        -0.896384
 H        -1.139022         0.022975        -2.129621
 H        -3.592669         0.892839        -1.583905
