19
Iteration:  4801
 C        -0.306232         2.713878        -0.053086
 C        -0.765930         1.160306        -0.080780
 C        -2.252991         0.858912         0.272588
 C        -1.946041        -0.439721        -0.439134
 C        -0.746098        -1.103394         0.363093
 C        -0.059273         0.078478         0.821459
 O         0.710969         0.239855         1.687160
 C        -1.069872         0.319679        -1.395076
 O        -1.670432         1.060512        -2.379892
 H         0.511901         2.815982         0.676026
 H         0.005972         3.026650        -1.081231
 H        -1.238534         3.282484         0.195085
 H        -2.488877         0.719751         1.468946
 H        -3.077132         1.596341        -0.215670
 H        -2.676792        -1.276300        -0.830510
 H        -1.017449        -1.680966         1.211016
 H        -0.135747        -1.748806        -0.307846
 H        -0.283389        -0.321599        -1.783383
 H        -0.972984         1.731504        -2.776040
