19
Iteration:  4508charge 0 multiplicity 1
 C        -0.296752         2.664173        -0.077807
 C        -0.739010         1.158304        -0.063882
 C        -2.252850         0.780716         0.278365
 C        -1.905813        -0.525259        -0.572579
 C        -0.889415        -1.161546         0.514906
 C        -0.152300         0.131320         0.891129
 O         0.851604         0.312399         1.649492
 C        -0.994537         0.332655        -1.422328
 O        -1.747845         1.171724        -2.371864
 H         0.640688         2.692457         0.463127
 H        -0.074290         2.982251        -1.069222
 H        -0.948003         3.290549         0.541352
 H        -2.293287         0.580203         1.450483
 H        -2.972360         1.580759        -0.190781
 H        -2.499209        -1.205010        -1.234835
 H        -1.624385        -1.554909         1.265075
 H        -0.448474        -2.073420        -0.003492
 H        -0.094221        -0.071254        -1.867307
 H        -1.059252         1.482419        -3.027465
