19
Iteration:  2445charge 0 multiplicity 1
 C        -0.493722         2.653832         0.162353
 C        -0.887200         1.239468         0.075304
 C        -2.363741         0.855922         0.296451
 C        -2.041632        -0.506558        -0.373653
 C        -0.845611        -1.062779         0.505414
 C        -0.052067         0.126296         0.686420
 O         1.093260         0.168294         1.087006
 C        -1.023369         0.331161        -1.311393
 O        -1.468949         1.125317        -2.333274
 H         0.214225         2.765586         0.953825
 H        -0.106922         3.089631        -0.754515
 H        -1.347868         3.247830         0.537400
 H        -2.791204         0.913897         1.425368
 H        -3.217741         1.355310        -0.263448
 H        -2.801572        -1.116763        -0.802358
 H        -1.210226        -1.468399         1.453703
 H        -0.100759        -1.824666         0.274765
 H        -0.141840        -0.241177        -1.513783
 H        -2.451814         0.944701        -2.543759
