19
Iteration:  4330
 C        -0.170813         2.555465        -0.058263
 C        -0.812872         1.168288        -0.071803
 C        -2.253163         0.692002         0.222111
 C        -1.852255        -0.532383        -0.510362
 C        -0.904974        -1.186482         0.472566
 C        -0.093635         0.114730         0.847933
 O         0.717596         0.399289         1.703692
 C        -0.967837         0.418664        -1.454233
 O        -1.784248         1.204594        -2.366408
 H         0.893541         2.542289        -0.342640
 H        -0.639937         3.250096        -0.728179
 H        -0.138323         3.004985         0.842901
 H        -2.374579         0.723227         1.428058
 H        -3.040625         1.294179        -0.215055
 H        -2.677634        -1.213664        -0.823556
 H        -1.331964        -1.681510         1.348820
 H        -0.241323        -1.917970        -0.005461
 H        -0.078505         0.129935        -1.979706
 H        -1.125284         1.459874        -2.955299
