19
Iteration:    16
 C        -0.059582         2.580554        -0.001906
 C        -0.685509         1.183578        -0.060758
 C        -1.706233         0.630863         1.042528
 C        -2.019382        -0.465417        -0.020374
 C        -0.655354        -1.218039        -0.045430
 C         0.332782        -0.006809        -0.039053
 O         1.514570        -0.059574         0.165024
 C        -1.748331         0.700351        -1.038230
 O        -2.875069         1.563192        -1.320036
 H         0.846082         2.497583         0.671612
 H         0.308839         2.882141        -0.977667
 H        -0.849808         3.274434         0.386654
 H        -1.288437         0.287159         2.035406
 H        -2.474670         1.407226         1.282732
 H        -2.956262        -1.053370        -0.206179
 H        -0.341896        -1.953333         0.645454
 H        -0.505339        -1.755912        -1.034414
 H        -1.253729         0.426490        -2.035504
 H        -3.699228         1.087658        -1.017152
