19
Iteration:  1901
 C        -0.419751         2.631100         0.217431
 C        -0.860881         1.223453         0.130332
 C        -2.336958         0.759101         0.453604
 C        -1.986920        -0.441579        -0.429612
 C        -0.932627        -1.120483         0.528872
 C         0.023435         0.207254         0.722279
 O         1.248030         0.176321         0.857266
 C        -1.096410         0.399588        -1.292121
 O        -1.733012         1.144204        -2.286630
 H        -0.434873         2.840984         1.250405
 H         0.621185         2.706681        -0.183069
 H        -1.140624         3.232715        -0.400834
 H        -2.509667         0.565782         1.594715
 H        -3.056505         1.474273         0.028790
 H        -2.834835        -1.006542        -0.877600
 H        -1.486614        -1.396095         1.377243
 H        -0.295536        -1.862619         0.173201
 H        -0.238628        -0.068928        -1.795050
 H        -2.003365         0.501167        -2.948618
