19
Iteration:  3633charge 0 multiplicity 1
 C        -0.464300         2.698856         0.130509
 C        -0.820279         1.204492         0.035954
 C        -2.359164         0.887363         0.330349
 C        -1.942250        -0.476244        -0.457876
 C        -0.903902        -1.119067         0.480020
 C        -0.134949         0.154326         0.786390
 O         0.971471         0.222985         1.378243
 C        -0.948523         0.335149        -1.312717
 O        -1.475217         1.078760        -2.454210
 H         0.594510         2.867928         0.363278
 H        -0.722969         3.076039        -0.833410
 H        -1.227126         3.268279         0.913698
 H        -2.954456         0.734685         1.175382
 H        -2.875071         1.292602        -0.548212
 H        -2.810345        -1.112047        -0.991860
 H        -1.330978        -1.604368         1.381752
 H        -0.413273        -1.926189        -0.099397
 H         0.109489        -0.113365        -1.570809
 H        -1.889274         0.486877        -3.151317
