19
Iteration:  1935charge 0 multiplicity 1
 C        -0.333644         2.694395         0.188092
 C        -0.795557         1.279260        -0.068066
 C        -2.351102         0.804951         0.389227
 C        -1.950990        -0.533803        -0.337220
 C        -0.833764        -1.271813         0.542979
 C         0.075286         0.136572         0.642991
 O         1.152778         0.185902         1.156254
 C        -1.102053         0.406506        -1.441393
 O        -1.877240         1.241973        -2.292525
 H         0.175197         2.727314         1.192276
 H         0.354783         3.082405        -0.578242
 H        -1.226399         3.322596         0.295605
 H        -2.489215         0.826375         1.560568
 H        -3.192682         1.313310        -0.082753
 H        -2.812241        -1.118655        -0.718906
 H        -1.161046        -1.611788         1.497140
 H        -0.303067        -2.102011         0.168351
 H        -0.260495        -0.142631        -1.907888
 H        -2.455712         0.682932        -2.923976
