19
Iteration:  1115charge 0 multiplicity 1
 C        -0.171551         2.576118         0.068094
 C        -0.802316         1.194478        -0.011297
 C        -2.107612         0.812024         0.724727
 C        -2.053542        -0.496826        -0.226152
 C        -0.774290        -1.082960         0.399030
 C         0.158881         0.119545         0.384406
 O         1.350537         0.101291         0.743477
 C        -1.392687         0.419449        -1.260019
 O        -2.223713         1.272226        -2.057171
 H         0.295251         2.772922        -0.816052
 H        -0.844542         3.401172         0.198469
 H         0.572593         2.554203         0.910774
 H        -2.010609         0.549708         1.750776
 H        -2.927124         1.479423         0.623966
 H        -2.967375        -1.055371        -0.655078
 H        -0.817039        -1.484563         1.408001
 H        -0.320571        -1.883977        -0.319079
 H        -0.632024        -0.025547        -1.909583
 H        -3.130824         1.227758        -1.806254
