19
Iteration:   475charge 0 multiplicity 1
 C        -0.050015         2.620052         0.172709
 C        -0.815345         1.217468         0.125989
 C        -1.993470         0.761059         0.970763
 C        -2.094661        -0.482788        -0.008338
 C        -0.736951        -1.167019         0.367404
 C         0.173710         0.036798         0.187030
 O         1.366971         0.078625        -0.059240
 C        -1.516368         0.474766        -1.157676
 O        -2.400119         1.366382        -1.734676
 H        -0.146986         3.119348        -0.798649
 H        -0.362641         3.439023         0.892225
 H         1.033139         2.528813         0.334325
 H        -1.831758         0.556340         2.026839
 H        -2.798869         1.511689         0.953345
 H        -2.934310        -1.251413         0.033904
 H        -0.739372        -1.603836         1.415943
 H        -0.356297        -2.019569        -0.155672
 H        -0.796969        -0.006800        -1.905811
 H        -2.619902         1.098392        -2.688276
