19
Iteration:  2366charge 0 multiplicity 1
 C        -0.234994         2.691855         0.052987
 C        -0.724764         1.234727        -0.092705
 C        -2.326335         0.740729         0.316247
 C        -1.974671        -0.543159        -0.429675
 C        -0.824752        -1.228046         0.385172
 C        -0.010361         0.216226         0.731141
 O         0.963448         0.279668         1.459133
 C        -1.098079         0.350181        -1.413431
 O        -1.816469         1.195408        -2.232404
 H        -0.485550         3.017162         1.048528
 H         0.861623         2.844620         0.100281
 H        -0.667431         3.448328        -0.563290
 H        -2.660213         0.513802         1.471610
 H        -2.903558         1.497930        -0.196961
 H        -2.619242        -1.187075        -1.016799
 H        -1.050088        -1.856536         1.244579
 H        -0.129648        -1.822978        -0.154447
 H        -0.406251        -0.262187        -1.950731
 H        -2.436027         0.675696        -2.870932
