19
Iteration:  3800charge 0 multiplicity 1
 C        -0.231001         2.593235         0.063510
 C        -0.822818         1.211729         0.095456
 C        -2.354268         0.836486         0.160992
 C        -1.826996        -0.495467        -0.559359
 C        -0.810281        -1.143052         0.529292
 C        -0.139372         0.154644         0.773357
 O         0.774613         0.319318         1.554443
 C        -1.001708         0.366993        -1.392652
 O        -1.712222         1.071936        -2.380256
 H         0.330401         2.676038        -0.926140
 H        -0.972478         3.492682         0.204860
 H         0.559024         2.641126         0.897266
 H        -2.763423         0.815897         1.092808
 H        -2.852053         1.438755        -0.542765
 H        -2.591710        -1.160441        -0.927802
 H        -1.524313        -1.512561         1.253055
 H        -0.236174        -2.055603         0.282262
 H        -0.122169        -0.169931        -1.805809
 H        -1.070334         1.293891        -3.022075
