19
Iteration:  2796
 C        -0.343628         2.699438         0.083822
 C        -0.847014         1.197586         0.041977
 C        -2.293573         0.770562         0.305055
 C        -1.990713        -0.499157        -0.484668
 C        -0.876306        -1.137396         0.436616
 C        -0.130000         0.112082         0.866190
 O         0.946548         0.347723         1.398030
 C        -1.020956         0.260198        -1.325446
 O        -1.517552         1.133261        -2.457093
 H        -0.190938         3.138032         1.120130
 H         0.647091         2.573830        -0.398098
 H        -1.094674         3.341389        -0.507284
 H        -2.797766         0.603107         1.232989
 H        -2.923168         1.258087        -0.400587
 H        -2.781731        -1.112408        -0.969832
 H        -1.318875        -1.636894         1.348820
 H        -0.380356        -1.948164        -0.147799
 H        -0.083826        -0.140889        -1.849637
 H        -2.375763         1.404322        -2.234739
