19
Iteration:  2918
 C        -0.153548         2.601965         0.002658
 C        -0.845643         1.212024        -0.032221
 C        -2.317061         0.665629         0.364508
 C        -1.878443        -0.524317        -0.520411
 C        -0.869704        -1.131907         0.339530
 C        -0.077195         0.234408         0.821240
 O         0.765914         0.384407         1.705702
 C        -1.016024         0.387749        -1.398616
 O        -1.663617         1.103714        -2.498878
 H         0.806247         2.701603         0.617692
 H         0.151979         2.756862        -1.107974
 H        -0.857969         3.385171         0.295626
 H        -2.362463         0.236204         1.376243
 H        -3.228172         1.163624         0.195718
 H        -2.425433        -1.185668        -1.130466
 H        -1.340823        -1.611425         1.229227
 H        -0.265761        -1.924974        -0.214288
 H        -0.135917        -0.054705        -2.005955
 H        -2.561837         1.397135        -2.149200
