19
Iteration:  2177
 C        -0.441306         2.695914         0.114979
 C        -0.874210         1.242781         0.056456
 C        -2.330372         0.756498         0.427906
 C        -1.955370        -0.483898        -0.416492
 C        -0.918353        -1.110668         0.579272
 C        -0.074384         0.157723         0.663354
 O         1.095559         0.100894         0.929617
 C        -0.997773         0.458786        -1.276726
 O        -1.696945         1.155869        -2.212090
 H        -0.112477         2.929141        -0.901122
 H        -1.258679         3.296995         0.319903
 H         0.422850         2.784341         0.724264
 H        -2.475393         0.416664         1.543309
 H        -3.144863         1.452573        -0.004585
 H        -2.502511        -1.404694        -0.720763
 H        -1.169639        -1.423377         1.571350
 H        -0.256183        -1.845990         0.221678
 H        -0.047985        -0.044541        -1.700775
 H        -1.205454         1.138913        -2.996568
