19
Iteration:   792
 C        -0.202476         2.673640         0.187819
 C        -0.729509         1.253695         0.131809
 C        -2.068439         0.807329         0.806706
 C        -2.003013        -0.500598        -0.069682
 C        -0.809487        -1.115486         0.551063
 C         0.156495         0.086856         0.347240
 O         1.320895        -0.052658         0.061646
 C        -1.386941         0.518334        -1.177000
 O        -2.325663         1.206963        -1.959919
 H         0.689413         2.763289         0.868001
 H         0.110742         3.070381        -0.802083
 H        -0.919708         3.308064         0.515755
 H        -2.031467         0.711301         1.939055
 H        -2.839764         1.497969         0.428329
 H        -2.883514        -1.115463        -0.195900
 H        -0.968924        -1.230690         1.691766
 H        -0.594449        -2.095556         0.129379
 H        -0.676072         0.021344        -1.823796
 H        -1.768316         1.916715        -2.416659
