19
Iteration:   416charge 0 multiplicity 1
 C        -0.187272         2.634233        -0.165622
 C        -0.626673         1.219614        -0.112749
 C        -1.787699         0.713113         0.950483
 C        -2.013274        -0.391197        -0.045622
 C        -0.694639        -1.193066         0.099312
 C         0.251479         0.012882         0.169476
 O         1.409661        -0.082877         0.462963
 C        -1.634152         0.540044        -1.173106
 O        -2.655311         1.401837        -1.434149
 H         0.910629         2.851905        -0.261391
 H        -0.694010         2.984880        -1.055184
 H        -0.696118         3.209250         0.725682
 H        -1.673873         0.537868         1.993265
 H        -2.543534         1.445167         0.747755
 H        -2.912736        -0.991969         0.075982
 H        -0.760611        -1.746602         1.016393
 H        -0.377512        -1.832803        -0.801596
 H        -1.188400         0.032048        -2.105146
 H        -2.306504         1.985931        -2.137112
