19
Iteration:  1691
 C        -0.297616         2.533992        -0.089613
 C        -0.781361         1.149737         0.027155
 C        -2.144348         0.778178         0.501410
 C        -1.964923        -0.459480        -0.377255
 C        -0.716776        -1.161319         0.367892
 C         0.105970         0.100213         0.647487
 O         1.149477         0.140651         1.254194
 C        -1.225042         0.452029        -1.381426
 O        -2.141533         1.283442        -2.190463
 H         0.785259         2.627908         0.009461
 H        -0.534315         2.977523        -1.093651
 H        -0.740693         3.350261         0.697464
 H        -2.406221         0.540871         1.570929
 H        -2.899753         1.486130         0.097638
 H        -2.767743        -1.191392        -0.607543
 H        -1.014764        -1.652453         1.262594
 H        -0.279254        -1.834310        -0.317471
 H        -0.305527         0.080648        -1.873653
 H        -2.150508         2.117021        -1.785322
