19
Iteration:  1038charge 0 multiplicity 1
 C        -0.348157         2.650141         0.110110
 C        -0.807284         1.209319         0.156399
 C        -2.170996         0.840650         0.743152
 C        -2.048010        -0.500073        -0.149841
 C        -0.821298        -1.111443         0.597737
 C         0.135511         0.084542         0.382125
 O         1.371143         0.008966         0.277517
 C        -1.328856         0.379737        -1.257273
 O        -2.109704         1.286127        -1.980696
 H         0.483351         2.827745         0.719603
 H         0.047974         2.846108        -0.882590
 H        -1.154298         3.380805         0.271893
 H        -2.109752         0.718619         1.802268
 H        -2.865223         1.607246         0.520391
 H        -2.964347        -1.160358        -0.274920
 H        -1.020048        -1.291748         1.694723
 H        -0.371534        -2.065156         0.009038
 H        -0.566493        -0.159329        -1.848376
 H        -1.467662         1.945027        -2.444863
