19
Iteration:   485charge 0 multiplicity 1
 C        -0.028499         2.642418         0.201818
 C        -0.789954         1.181353         0.085027
 C        -2.019806         0.760823         0.955074
 C        -2.059548        -0.477788         0.010803
 C        -0.785285        -1.190529         0.393492
 C         0.190775         0.075052         0.244234
 O         1.357345         0.131530        -0.134522
 C        -1.573211         0.432118        -1.114700
 O        -2.323363         1.346770        -1.743854
 H        -0.364395         3.346230        -0.568428
 H        -0.198713         3.012853         1.240778
 H         1.053438         2.339150         0.027229
 H        -1.918499         0.596031         1.976958
 H        -2.896129         1.339357         0.691114
 H        -3.092438        -0.937522        -0.083792
 H        -0.852884        -1.428371         1.472378
 H        -0.452301        -1.992046        -0.275999
 H        -0.786097         0.023353        -1.859899
 H        -2.725093         0.984085        -2.576034
