19
Iteration:  4995
 C        -0.380012         2.645516         0.086250
 C        -0.814873         1.229885         0.026676
 C        -2.433229         0.781623         0.218919
 C        -1.940760        -0.550658        -0.540864
 C        -1.016304        -1.129574         0.684405
 C        -0.132832         0.079593         0.816473
 O         1.014076         0.259165         1.086038
 C        -0.898968         0.386688        -1.235481
 O        -1.587033         1.137477        -2.288811
 H        -1.256188         3.315064         0.344860
 H         0.370578         2.765783         0.980533
 H         0.079953         3.106095        -0.832825
 H        -2.785965         0.848932         1.225230
 H        -3.101640         1.382401        -0.479893
 H        -2.600322        -1.217120        -1.164397
 H        -1.631877        -1.247067         1.640633
 H        -0.321894        -1.980694         0.454974
 H         0.031675        -0.031537        -1.583613
 H        -0.685522         1.403579        -2.693217
