19
Iteration:  3084charge 0 multiplicity 1
 C        -0.363018         2.683154         0.040628
 C        -0.879817         1.275079        -0.002563
 C        -2.311909         0.691374         0.270178
 C        -1.928193        -0.540437        -0.445945
 C        -0.953298        -1.142489         0.559417
 C        -0.078811         0.142770         0.753254
 O         0.853169         0.276029         1.547869
 C        -0.904927         0.452926        -1.385930
 O        -1.528034         1.014826        -2.565671
 H         0.385784         2.914303        -0.761208
 H        -1.140911         3.506756         0.110147
 H         0.180203         2.818237         0.980989
 H        -2.542441         0.752882         1.317302
 H        -3.106046         1.166744        -0.163320
 H        -2.707954        -1.047071        -0.959754
 H        -1.376060        -1.376024         1.569175
 H        -0.392796        -2.038137         0.201981
 H         0.064482         0.037597        -1.865172
 H        -1.995354         1.867720        -2.288332
