19
Iteration:   896
 C        -0.140687         2.482535        -0.478179
 C        -0.677243         1.134401        -0.139499
 C        -1.941838         0.783201         0.810451
 C        -1.930146        -0.491966        -0.203967
 C        -0.628459        -1.221438         0.142484
 C         0.225681        -0.022103         0.411365
 O         1.207943         0.113071         1.107208
 C        -1.482946         0.566091        -1.306168
 O        -2.552438         1.496873        -1.580038
 H        -0.469343         2.853338        -1.424956
 H        -0.503331         3.212744         0.261279
 H         1.018366         2.590021        -0.341727
 H        -1.735683         0.667425         1.838749
 H        -2.806023         1.376477         0.689885
 H        -2.851934        -1.095854        -0.387844
 H        -0.784997        -1.928308         0.995925
 H        -0.193020        -1.841083        -0.742878
 H        -1.017248         0.282651        -2.253619
 H        -2.719773         1.372592        -2.559265
