19
Iteration:  1942
 C        -0.313114         2.650081         0.153845
 C        -0.794911         1.227344        -0.084817
 C        -2.247302         0.803971         0.383825
 C        -1.957229        -0.522863        -0.395807
 C        -0.845590        -1.205142         0.488777
 C         0.039402         0.120798         0.711627
 O         1.161489         0.219516         1.205479
 C        -1.154129         0.398401        -1.405041
 O        -1.908430         1.229850        -2.252478
 H         0.255148         2.780429         1.031585
 H         0.258292         3.265741        -0.603175
 H        -1.116483         3.424369         0.307158
 H        -2.576491         0.679365         1.463050
 H        -3.095174         1.279424        -0.165978
 H        -2.807945        -1.130773        -0.725226
 H        -1.202217        -1.732377         1.416367
 H        -0.264116        -2.011630        -0.032454
 H        -0.247504        -0.120375        -1.881080
 H        -2.443365         0.722623        -2.960099
