19
Iteration:  3655charge 0 multiplicity 1
 C        -0.343832         2.684271         0.066491
 C        -0.865808         1.211942        -0.032364
 C        -2.299259         0.737414         0.217981
 C        -1.907496        -0.476343        -0.560778
 C        -0.914703        -1.066913         0.548936
 C        -0.095515         0.141150         0.766419
 O         0.933039         0.242192         1.527480
 C        -1.013860         0.374580        -1.353732
 O        -1.625767         1.095111        -2.381549
 H         0.669119         2.667442         0.507486
 H        -0.521226         3.330773        -0.763937
 H        -1.100262         3.156754         0.957564
 H        -2.288429         0.737082         1.267429
 H        -2.987029         1.408221        -0.296284
 H        -2.748514        -1.154568        -1.063516
 H        -1.364166        -1.511775         1.455103
 H        -0.355546        -1.898515         0.064541
 H        -0.009561        -0.068946        -1.730486
 H        -1.397657         0.678223        -3.233462
