19
Iteration:  3875
 C        -0.492190         2.729510         0.082644
 C        -0.861241         1.192172         0.001485
 C        -2.448247         0.857343         0.198924
 C        -1.917766        -0.411517        -0.463605
 C        -1.031091        -1.094461         0.545726
 C        -0.090173         0.132629         0.866647
 O         1.055846         0.165173         1.337257
 C        -0.970104         0.308449        -1.259365
 O        -1.445533         1.028516        -2.438789
 H        -0.013851         3.186992        -0.790465
 H        -1.510869         3.218995         0.169246
 H         0.094542         2.932158         1.016760
 H        -3.018806         0.701271         1.239493
 H        -2.946170         1.515887        -0.510687
 H        -2.590671        -1.038819        -1.118979
 H        -1.370038        -1.477667         1.476178
 H        -0.364732        -1.858160         0.120576
 H        -0.121929        -0.310214        -1.441480
 H        -0.658039         1.466657        -2.875373
