19
Iteration:  3761
 C        -0.250160         2.706015        -0.031266
 C        -0.662988         1.204612        -0.081129
 C        -2.223570         0.792472         0.324253
 C        -1.904592        -0.436341        -0.523695
 C        -0.852300        -1.114452         0.318443
 C        -0.029508         0.122097         0.820130
 O         0.660084         0.283269         1.817980
 C        -1.047030         0.292431        -1.442269
 O        -1.738866         0.999017        -2.479483
 H         0.322281         2.996242        -0.905554
 H        -1.125493         3.330318        -0.057731
 H         0.349214         2.929968         0.838468
 H        -2.411518         0.486609         1.477023
 H        -3.027450         1.587864         0.012013
 H        -2.725249        -1.070479        -0.866857
 H        -1.294920        -1.525478         1.246194
 H        -0.025900        -1.733411        -0.065613
 H        -0.227460        -0.251345        -1.924767
 H        -1.413227         1.935606        -2.446108
