19
Iteration:  2898charge 0 multiplicity 1
 C        -0.158506         2.638630        -0.035174
 C        -0.728247         1.221063        -0.097999
 C        -2.267564         0.677410         0.369060
 C        -1.866547        -0.571577        -0.515237
 C        -0.788156        -1.239082         0.458445
 C        -0.077684         0.054607         0.791577
 O         0.664824         0.405331         1.712409
 C        -1.052892         0.520169        -1.437645
 O        -1.728007         1.131887        -2.509590
 H         0.650606         2.489075         0.764184
 H         0.263022         3.048254        -1.054011
 H        -0.889543         3.361622         0.335151
 H        -2.743829         0.629419         1.410329
 H        -2.972192         1.336201        -0.191471
 H        -2.606941        -1.145011        -0.969713
 H        -1.148219        -1.704053         1.367040
 H         0.042879        -1.923825         0.190311
 H        -0.186862         0.156631        -2.015335
 H        -2.600316         1.556041        -2.146021
