19
Iteration:   322charge 0 multiplicity 1
 C         0.008726         2.510463        -0.238522
 C        -0.658031         1.159560        -0.072976
 C        -1.744193         0.714388         0.967206
 C        -2.004758        -0.473720        -0.051900
 C        -0.639817        -1.287914        -0.037283
 C         0.296112         0.029075         0.122809
 O         1.418025         0.037780         0.559211
 C        -1.694574         0.640252        -1.161350
 O        -2.911487         1.442086        -1.370492
 H        -0.618903         3.287409        -0.676314
 H         0.430632         2.986711         0.699042
 H         0.820465         2.462195        -0.955732
 H        -1.455381         0.510351         2.062721
 H        -2.457145         1.585050         0.902685
 H        -3.065386        -0.913250        -0.169113
 H        -0.546103        -2.056897         0.725970
 H        -0.387519        -1.678439        -1.029164
 H        -1.333137         0.269347        -2.089871
 H        -2.743438         2.370845        -1.495836
