19
Iteration:  2166
 C        -0.450070         2.669627         0.092248
 C        -0.926659         1.240664         0.030868
 C        -2.341704         0.780086         0.495465
 C        -1.888752        -0.573193        -0.368543
 C        -0.903298        -1.163800         0.620397
 C        -0.045490         0.080075         0.673976
 O         1.147117         0.134693         0.918068
 C        -1.040587         0.435744        -1.257357
 O        -1.676030         1.240994        -2.317430
 H        -0.140781         3.081264        -0.866415
 H        -1.273148         3.244497         0.377313
 H         0.243237         2.931558         0.849555
 H        -2.563073         0.708943         1.653797
 H        -3.188244         1.443589         0.061250
 H        -2.722360        -1.045529        -0.941309
 H        -1.551510        -1.196690         1.462166
 H        -0.469346        -2.089171         0.445897
 H         0.003060         0.193952        -1.656564
 H        -1.181470         1.094276        -3.121633
