19
Iteration:  3053charge 0 multiplicity 1
 C        -0.411731         2.603781         0.160422
 C        -0.949908         1.211963         0.112235
 C        -2.383467         0.830965         0.188194
 C        -1.963384        -0.484340        -0.525118
 C        -0.938492        -1.080858         0.569842
 C        -0.136195         0.170151         0.836615
 O         0.970393         0.351724         1.290281
 C        -0.931511         0.266448        -1.358458
 O        -1.391522         1.031014        -2.446470
 H         0.497087         2.830713        -0.510602
 H        -1.128728         3.426127        -0.172936
 H        -0.010690         2.642263         1.248889
 H        -2.598803         0.910487         1.308055
 H        -3.160031         1.304580        -0.443627
 H        -2.727556        -1.072259        -1.086199
 H        -1.436555        -1.492050         1.473432
 H        -0.236869        -1.812181         0.147587
 H        -0.050606        -0.349397        -1.555228
 H        -2.294159         1.283681        -2.390862
