19
Iteration:  2327charge 0 multiplicity 1
 C        -0.206222         2.638314        -0.204995
 C        -0.696087         1.178255        -0.081638
 C        -2.207737         0.691214         0.529734
 C        -1.864965        -0.551857        -0.485160
 C        -0.715750        -1.219426         0.375294
 C         0.042450         0.101858         0.690213
 O         0.759215         0.283904         1.640968
 C        -1.140877         0.451615        -1.385276
 O        -1.984915         1.307260        -2.267971
 H        -0.940994         3.235598         0.352833
 H         0.788490         2.592667         0.266862
 H        -0.133937         2.894783        -1.300041
 H        -2.303548         0.496744         1.505814
 H        -3.027431         1.387929         0.272140
 H        -2.735598        -1.125576        -0.860994
 H        -1.048167        -1.713459         1.337633
 H        -0.102132        -1.949308        -0.282584
 H        -0.290677         0.101623        -2.057436
 H        -1.609999         1.161076        -3.114754
