19
Iteration:  2944charge 0 multiplicity 1
 C        -0.311647         2.621472        -0.002910
 C        -0.858418         1.180576        -0.033145
 C        -2.325077         0.823896         0.216194
 C        -1.913493        -0.500903        -0.397121
 C        -0.725144        -1.210401         0.422720
 C        -0.145580         0.167405         0.824418
 O         0.795555         0.286954         1.541846
 C        -0.993455         0.400173        -1.313375
 O        -1.565192         1.108204        -2.431473
 H         0.597875         2.780500         0.618689
 H        -0.070898         2.943465        -1.055495
 H        -1.146355         3.285888         0.337916
 H        -2.754814         0.803405         1.279603
 H        -3.092467         1.484997        -0.336125
 H        -2.648868        -1.161414        -0.892384
 H        -1.026423        -1.894891         1.223653
 H        -0.121197        -1.803017        -0.268020
 H        -0.123537         0.033287        -1.761754
 H        -2.493641         1.430309        -2.177801
