19
Iteration:  1271charge 0 multiplicity 1
 C        -0.219929         2.528812         0.084203
 C        -0.833661         1.208685         0.076539
 C        -2.183447         0.810311         0.644946
 C        -2.020913        -0.468427        -0.308673
 C        -0.703211        -1.138220         0.361415
 C         0.139763         0.066405         0.487259
 O         1.302779         0.167759         0.877516
 C        -1.303698         0.565561        -1.291760
 O        -2.265145         1.132192        -2.145488
 H        -0.553397         3.128738         0.975865
 H         0.862104         2.414721         0.242695
 H        -0.323179         3.123495        -0.818942
 H        -2.092235         0.561333         1.685464
 H        -3.014393         1.464522         0.376935
 H        -2.851665        -1.110925        -0.580147
 H        -0.944395        -1.581858         1.355758
 H        -0.231259        -1.927353        -0.239620
 H        -0.493659         0.153151        -1.963868
 H        -1.939188         2.104698        -2.077738
