19
Iteration:  4901
 C        -0.185710         2.552253         0.094301
 C        -0.794856         1.165276        -0.065178
 C        -2.277483         0.761300         0.268268
 C        -1.884407        -0.489876        -0.494697
 C        -0.847517        -1.112614         0.416730
 C        -0.074832         0.158185         0.825511
 O         0.830568         0.373391         1.594955
 C        -1.041521         0.414690        -1.446065
 O        -1.839345         1.047797        -2.406540
 H        -0.760636         3.073571         0.847419
 H         0.742808         2.331926         0.576281
 H        -0.119569         3.164488        -0.790618
 H        -2.449221         0.738791         1.444306
 H        -3.048297         1.373417        -0.288175
 H        -2.625503        -1.109943        -1.015107
 H        -1.324970        -1.591340         1.230728
 H        -0.163435        -1.727424        -0.164028
 H        -0.105750         0.008469        -1.804401
 H        -1.213658         1.620664        -2.901871
