19
Iteration:  3995charge 0 multiplicity 1
 C        -0.197106         2.622257        -0.088492
 C        -0.627613         1.180565        -0.039428
 C        -2.197621         0.787716         0.355986
 C        -1.853649        -0.500744        -0.586296
 C        -0.786104        -1.123819         0.350087
 C        -0.180022         0.145221         0.853282
 O         0.597123         0.286603         1.766516
 C        -0.988876         0.437499        -1.437326
 O        -1.844069         1.041991        -2.376592
 H         0.826581         2.714329         0.018355
 H        -0.388099         2.836246        -1.102234
 H        -0.663811         3.307983         0.566037
 H        -2.402325         0.513600         1.478903
 H        -2.845181         1.648984         0.002429
 H        -2.723530        -1.001063        -0.980218
 H        -1.094758        -1.737903         1.194648
 H         0.013543        -1.743091        -0.098995
 H        -0.076973        -0.013308        -1.994816
 H        -1.214051         1.641203        -2.871558
