19
Iteration:  3104charge 0 multiplicity 1
 C        -0.361132         2.616508        -0.032439
 C        -0.768225         1.221368        -0.047936
 C        -2.322694         0.852734         0.297693
 C        -1.841084        -0.530928        -0.556654
 C        -0.811847        -1.108334         0.439927
 C        -0.161482         0.205321         0.902198
 O         0.817208         0.235670         1.668880
 C        -1.012571         0.380796        -1.408293
 O        -1.623186         1.022952        -2.487011
 H         0.279498         2.947016        -0.846705
 H        -1.193956         3.368806        -0.014349
 H         0.205333         2.719870         0.799658
 H        -2.680952         0.645527         1.314543
 H        -3.049070         1.562599        -0.088041
 H        -2.424412        -1.314778        -0.921305
 H        -1.316218        -1.635001         1.272980
 H        -0.086664        -1.846196        -0.022100
 H        -0.092478        -0.221491        -1.906901
 H        -1.870414         1.993537        -2.297223
