19
Iteration:  2909charge 0 multiplicity 1
 C        -0.137849         2.617543        -0.019462
 C        -0.777700         1.230993        -0.089285
 C        -2.357859         0.607892         0.352339
 C        -1.872658        -0.488926        -0.545112
 C        -0.796003        -1.254928         0.447583
 C        -0.057009         0.175263         0.820579
 O         0.723905         0.402209         1.720922
 C        -1.023093         0.463329        -1.420737
 O        -1.711758         1.126109        -2.525962
 H         0.777217         2.697410         0.694825
 H         0.253587         2.962435        -1.086890
 H        -0.837731         3.378211         0.341405
 H        -2.300845         0.368085         1.482319
 H        -3.202551         1.238805         0.026120
 H        -2.627953        -1.128583        -0.838149
 H        -1.398729        -1.656062         1.246653
 H        -0.388483        -2.038081        -0.211033
 H        -0.071949         0.042575        -1.774563
 H        -2.605730         1.485689        -2.218902
