19
Iteration:   631
 C         0.022799         2.465290        -0.408581
 C        -0.649683         1.166412        -0.195570
 C        -1.814144         0.672403         0.911027
 C        -1.888007        -0.399436        -0.154424
 C        -0.592520        -1.309007        -0.037856
 C         0.207936         0.018593         0.259925
 O         1.195620         0.149154         0.976413
 C        -1.624598         0.612115        -1.197097
 O        -2.731464         1.529947        -1.451677
 H         0.986527         2.190098        -0.970785
 H        -0.485413         3.294407        -0.988216
 H         0.409533         2.759510         0.522908
 H        -1.560956         0.303051         1.913324
 H        -2.702678         1.285640         0.819626
 H        -2.810038        -0.956330        -0.187066
 H        -0.675414        -1.978361         0.821595
 H        -0.470632        -1.818050        -0.944485
 H        -1.137988         0.338533        -2.207197
 H        -3.407695         1.025608        -1.961754
