19
Iteration:  1007
 C        -0.121209         2.552576         0.064932
 C        -0.739061         1.224471         0.054122
 C        -2.163422         0.831517         0.749137
 C        -2.006831        -0.475896        -0.139574
 C        -0.784022        -1.152838         0.498508
 C         0.143264         0.036395         0.389262
 O         1.349261         0.118115         0.500622
 C        -1.346908         0.499779        -1.254522
 O        -2.334513         1.205305        -2.020838
 H        -0.001897         2.896754         1.048529
 H         0.799660         2.500416        -0.521660
 H        -0.778431         3.333964        -0.469725
 H        -2.172519         0.698954         1.820918
 H        -2.866891         1.588887         0.480896
 H        -2.928671        -0.986444        -0.386737
 H        -0.936574        -1.644042         1.463762
 H        -0.437250        -2.019613        -0.224154
 H        -0.641405         0.152443        -2.017604
 H        -2.527942         2.117344        -1.903264
