19
Iteration:  4950charge 0 multiplicity 1
 C        -0.468103         2.719947         0.095021
 C        -0.858436         1.256344         0.018862
 C        -2.383808         0.881321         0.316733
 C        -1.964827        -0.457195        -0.431239
 C        -0.879225        -1.135327         0.501253
 C        -0.062499         0.143776         0.842768
 O         1.062125         0.078796         1.309859
 C        -1.012886         0.449861        -1.308310
 O        -1.570613         1.003209        -2.461954
 H        -1.483815         3.194497         0.320831
 H         0.342948         2.997233         0.887679
 H        -0.283295         3.042461        -1.002210
 H        -2.829791         0.742635         1.317128
 H        -3.021957         1.530911        -0.308990
 H        -2.676798        -1.181905        -0.923325
 H        -1.490932        -1.450949         1.426137
 H        -0.249088        -1.919326        -0.002796
 H        -0.166750        -0.196428        -1.459754
 H        -0.912462         1.627676        -2.913143
