19
Iteration:  1665
 C        -0.289246         2.755739         0.037478
 C        -0.842136         1.221638        -0.026448
 C        -2.236744         0.708531         0.596059
 C        -2.062263        -0.514509        -0.360629
 C        -0.831605        -1.205629         0.428043
 C         0.045532         0.123999         0.598798
 O         1.195475         0.148187         0.954716
 C        -1.182021         0.409873        -1.240226
 O        -1.918651         1.187600        -2.206035
 H         0.710667         2.783149         0.656326
 H        -0.000409         3.250793        -0.904659
 H        -0.956075         3.472880         0.510512
 H        -2.414446         0.531036         1.738567
 H        -3.077368         1.318142         0.203059
 H        -2.834774        -1.074830        -0.858897
 H        -1.076118        -1.639990         1.440268
 H        -0.290852        -1.915588        -0.243058
 H        -0.286503        -0.161287        -1.646571
 H        -1.894440         2.073007        -1.954975
