19
Iteration:  2014
 C        -0.238455         2.483831        -0.275109
 C        -0.681447         1.155600        -0.125308
 C        -2.125959         0.693703         0.544439
 C        -1.877551        -0.444840        -0.432418
 C        -0.594327        -1.121550         0.217098
 C         0.084903         0.095596         0.691375
 O         0.770240         0.249557         1.696521
 C        -1.256287         0.412061        -1.451804
 O        -2.082818         1.358009        -2.106105
 H         0.875767         2.533752         0.139451
 H        -0.197053         2.939437        -1.234411
 H        -0.705876         3.203748         0.392406
 H        -2.050294         0.511457         1.629753
 H        -2.884020         1.474495         0.327611
 H        -2.638028        -1.178300        -0.753276
 H        -0.943151        -1.810674         1.019946
 H        -0.001580        -1.655342        -0.568276
 H        -0.394726         0.018148        -2.039587
 H        -2.278339         0.970537        -3.029173
