19
Iteration:  4507
 C        -0.301684         2.664560        -0.070477
 C        -0.736898         1.160081        -0.061693
 C        -2.253428         0.779698         0.269294
 C        -1.901718        -0.528223        -0.576278
 C        -0.899655        -1.173553         0.517672
 C        -0.158549         0.134403         0.891808
 O         0.855837         0.316096         1.640953
 C        -1.000094         0.338010        -1.416480
 O        -1.739953         1.170358        -2.367415
 H         0.697333         2.688488         0.458831
 H        -0.065610         2.995573        -1.085039
 H        -0.948374         3.312054         0.519689
 H        -2.277143         0.594980         1.425826
 H        -2.964436         1.549441        -0.167582
 H        -2.508732        -1.212045        -1.215370
 H        -1.628224        -1.533938         1.266076
 H        -0.442153        -2.070490        -0.003418
 H        -0.072505        -0.056887        -1.867392
 H        -1.101009         1.464086        -3.011770
