19
Iteration:  3538
 C        -0.351879         2.664507         0.130936
 C        -0.863246         1.191891         0.047538
 C        -2.333000         0.780270         0.180683
 C        -1.912653        -0.535297        -0.516262
 C        -0.879078        -1.055903         0.497577
 C        -0.158128         0.192999         0.780635
 O         0.894194         0.263743         1.477081
 C        -0.948812         0.303097        -1.383216
 O        -1.600420         1.019553        -2.430666
 H         0.585771         2.850522        -0.408511
 H        -1.181529         3.235267        -0.409597
 H        -0.320293         3.029086         1.105371
 H        -2.627496         0.866043         1.299777
 H        -2.848946         1.459522        -0.484252
 H        -2.633396        -1.235944        -0.983070
 H        -1.282600        -1.368435         1.471578
 H        -0.179741        -1.818194         0.046446
 H         0.000086        -0.060541        -1.616882
 H        -1.325537         2.013647        -2.288904
