19
Iteration:  4502charge 0 multiplicity 1
 C        -0.294189         2.649231        -0.029355
 C        -0.741312         1.182403        -0.050003
 C        -2.245887         0.762533         0.225342
 C        -1.876036        -0.541710        -0.584833
 C        -0.971688        -1.228021         0.511055
 C        -0.144174         0.152286         0.896009
 O         0.852058         0.328690         1.581380
 C        -1.006399         0.382308        -1.390275
 O        -1.708049         1.150484        -2.326006
 H         0.776586         2.681300         0.371123
 H        -0.115550         3.048906        -1.078882
 H        -0.983951         3.425596         0.388965
 H        -2.351666         0.687808         1.247378
 H        -3.015912         1.427262        -0.086578
 H        -2.617992        -1.222424        -1.010132
 H        -1.612488        -1.482354         1.360353
 H        -0.320629        -1.986347         0.115625
 H        -0.057420         0.005752        -1.863754
 H        -1.128666         1.451339        -3.123009
