19
Iteration:  4367charge 0 multiplicity 1
 C        -0.301754         2.609251         0.023299
 C        -0.875394         1.225152        -0.029023
 C        -2.406996         0.798124         0.120093
 C        -1.901638        -0.486610        -0.477323
 C        -0.914947        -1.080126         0.535438
 C        -0.095025         0.128033         0.808785
 O         0.883856         0.259115         1.502295
 C        -0.907738         0.397568        -1.325025
 O        -1.641825         1.056951        -2.343519
 H         0.590161         2.636054        -0.606358
 H        -1.037789         3.328505        -0.393196
 H         0.074961         2.836842         1.136303
 H        -2.721916         0.691930         1.208353
 H        -3.128105         1.341423        -0.547502
 H        -2.548276        -1.275646        -0.854665
 H        -1.436317        -1.595123         1.395497
 H        -0.306581        -1.871768        -0.031299
 H         0.154877        -0.007136        -1.562441
 H        -1.149370         1.771982        -2.823367
