19
Iteration:  2078
 C        -0.237101         2.554912         0.029339
 C        -0.811937         1.165620        -0.018945
 C        -2.240831         0.698720         0.429083
 C        -1.912075        -0.433430        -0.493018
 C        -0.761504        -1.099004         0.362577
 C         0.067470         0.171414         0.742506
 O         1.059893         0.235533         1.468156
 C        -1.164026         0.483034        -1.395115
 O        -2.012809         1.213046        -2.330850
 H         0.666130         2.287730        -0.506235
 H        -0.815572         3.281594        -0.393382
 H         0.110432         2.696868         1.012367
 H        -2.362677         0.384381         1.554000
 H        -3.022096         1.473811         0.127761
 H        -2.706585        -1.141111        -0.801640
 H        -1.223157        -1.636589         1.160919
 H        -0.260306        -1.904230        -0.069704
 H        -0.243869         0.159288        -1.978034
 H        -2.649201         0.749198        -2.846100
