19
Iteration:   297charge 0 multiplicity 1
 C        -0.238859         2.626575        -0.113043
 C        -0.668116         1.173367        -0.110296
 C        -1.715094         0.709871         0.981650
 C        -1.972423        -0.452068        -0.037227
 C        -0.738700        -1.184101         0.071640
 C         0.321697         0.006393         0.146198
 O         1.505924        -0.097209         0.354127
 C        -1.676330         0.559507        -1.148299
 O        -2.747194         1.512524        -1.382327
 H        -0.405034         3.152543        -1.066330
 H        -0.596534         3.214040         0.654406
 H         0.912226         2.625853        -0.121477
 H        -1.326131         0.432991         1.923803
 H        -2.566380         1.354936         1.136429
 H        -2.941403        -1.005648        -0.061831
 H        -0.895870        -1.690644         0.998057
 H        -0.588733        -1.949784        -0.776421
 H        -1.288434         0.107968        -2.091605
 H        -2.668396         1.848844        -2.307048
