19
Iteration:  3392charge 0 multiplicity 1
 C        -0.340065         2.688341         0.066915
 C        -0.876048         1.252760        -0.067367
 C        -2.278493         0.765528         0.297167
 C        -1.862488        -0.531855        -0.460732
 C        -0.810100        -1.170085         0.360004
 C        -0.103036         0.162987         0.837926
 O         0.798619         0.313427         1.683704
 C        -0.967770         0.345710        -1.441425
 O        -1.622540         1.045169        -2.499819
 H         0.674203         2.621243        -0.208706
 H        -0.828273         3.239447        -0.650275
 H        -0.536282         3.194537         1.022250
 H        -2.615458         0.618280         1.351961
 H        -3.058756         1.342201        -0.352058
 H        -2.729840        -1.199796        -0.937441
 H        -1.258366        -1.798114         1.210400
 H        -0.144547        -1.833945        -0.324003
 H        -0.001134         0.036907        -1.668251
 H        -1.935047         1.890733        -2.161397
