19
Iteration:  1296
 C        -0.216018         2.701622         0.305534
 C        -0.806028         1.300426         0.066994
 C        -2.245175         0.800277         0.603668
 C        -1.996656        -0.488025        -0.276206
 C        -0.788621        -1.164977         0.451072
 C         0.095291         0.110348         0.538501
 O         1.301381         0.158442         0.603385
 C        -1.308066         0.390191        -1.316101
 O        -2.141225         1.161561        -2.098101
 H        -0.236992         2.946196         1.422497
 H         0.858647         2.731916         0.040067
 H        -0.641377         3.473193        -0.285297
 H        -2.341995         0.637821         1.708979
 H        -3.058314         1.355758         0.122900
 H        -2.804277        -1.114396        -0.594184
 H        -1.089526        -1.594022         1.468632
 H        -0.442192        -2.107895        -0.250339
 H        -0.546951        -0.185103        -1.993239
 H        -1.552770         0.954361        -2.892011
