19
Iteration:  1114charge 0 multiplicity 1
 C        -0.179313         2.569426         0.072236
 C        -0.801382         1.202507        -0.011402
 C        -2.106231         0.814984         0.731127
 C        -2.059345        -0.499696        -0.222593
 C        -0.770694        -1.078413         0.395920
 C         0.156114         0.119664         0.383500
 O         1.348141         0.094041         0.729345
 C        -1.388147         0.424333        -1.258583
 O        -2.212836         1.268502        -2.054245
 H         0.288125         2.751361        -0.827535
 H        -0.877396         3.388156         0.183340
 H         0.525479         2.565415         0.927843
 H        -2.006985         0.553690         1.776499
 H        -2.923010         1.488934         0.627144
 H        -2.947490        -1.072982        -0.675033
 H        -0.836698        -1.452701         1.397609
 H        -0.326837        -1.837274        -0.263821
 H        -0.622906        -0.023663        -1.867743
 H        -3.119086         1.218184        -1.850535
