19
Iteration:  2120charge 0 multiplicity 1
 C        -0.420036         2.654872         0.133359
 C        -0.917828         1.278922         0.004020
 C        -2.290360         0.817973         0.388602
 C        -1.974483        -0.463401        -0.366367
 C        -0.851757        -1.149006         0.438307
 C        -0.017986         0.125727         0.619790
 O         1.103530         0.178290         1.059552
 C        -1.077318         0.355540        -1.268600
 O        -1.684499         1.160466        -2.173991
 H         0.199753         2.951680        -0.651760
 H        -1.097279         3.528252         0.351913
 H         0.239476         2.589334         1.024375
 H        -2.572472         0.867134         1.517948
 H        -3.136581         1.294600        -0.184804
 H        -2.702410        -1.191575        -0.775977
 H        -1.090069        -1.448449         1.436047
 H        -0.228351        -1.842744        -0.104870
 H        -0.320836        -0.215237        -1.810382
 H        -1.866135         0.615527        -3.034132
