19
Iteration:  4774charge 0 multiplicity 1
 C        -0.239777         2.653197         0.078239
 C        -0.871661         1.194153         0.016942
 C        -2.274870         0.771276         0.163260
 C        -1.909930        -0.501135        -0.532434
 C        -0.961578        -1.164452         0.501842
 C        -0.147256         0.156101         0.851443
 O         0.897965         0.320990         1.531873
 C        -0.922791         0.417057        -1.360640
 O        -1.710282         1.025580        -2.403746
 H         0.705882         2.627524         0.590362
 H        -0.130717         3.071697        -0.901844
 H        -0.941472         3.389093         0.477315
 H        -2.626869         0.697074         1.120201
 H        -2.978215         1.356701        -0.277779
 H        -2.584389        -1.071068        -1.106461
 H        -1.358665        -1.527082         1.522745
 H        -0.430574        -2.069543         0.122993
 H         0.040293         0.014640        -1.806866
 H        -1.242133         1.660690        -3.076506
