19
Iteration:  4724
 C        -0.369185         2.675677         0.213191
 C        -0.888531         1.241689         0.059049
 C        -2.396966         0.863576         0.119355
 C        -1.883316        -0.521532        -0.500492
 C        -1.004738        -1.124554         0.666192
 C        -0.149390         0.187867         0.835012
 O         0.956952         0.273443         1.222860
 C        -0.877411         0.321411        -1.339615
 O        -1.522273         0.982199        -2.406118
 H         0.744522         2.638766        -0.084795
 H        -1.000174         3.382423        -0.409303
 H        -0.527830         3.028536         1.272839
 H        -3.037359         0.958079         1.051595
 H        -3.107494         1.393204        -0.641247
 H        -2.719517        -1.240766        -0.887047
 H        -1.534528        -1.543181         1.493888
 H        -0.432504        -1.971651         0.305296
 H        -0.005944        -0.167420        -1.742996
 H        -0.966883         1.709735        -2.731776
