19
Iteration:  1378charge 0 multiplicity 1
 C        -0.400035         2.666003         0.080996
 C        -0.893880         1.201872         0.080035
 C        -2.239064         0.804625         0.634554
 C        -1.989526        -0.455256        -0.290287
 C        -0.792308        -1.179131         0.392537
 C         0.133674         0.057472         0.586286
 O         1.327499         0.070643         0.689662
 C        -1.216106         0.466095        -1.217359
 O        -1.973430         1.217816        -2.123132
 H         0.593182         2.771267         0.522675
 H        -0.325411         2.971585        -0.973273
 H        -1.133098         3.305696         0.663273
 H        -2.343678         0.591787         1.710394
 H        -3.159420         1.325457         0.303253
 H        -2.865590        -1.052571        -0.695590
 H        -0.981477        -1.618265         1.360468
 H        -0.419219        -1.863549        -0.277962
 H        -0.364127         0.128823        -1.823861
 H        -2.362360         2.089114        -1.742109
