19
Iteration:  2231
 C        -0.240714         2.561826         0.135572
 C        -0.813666         1.214877        -0.105022
 C        -2.185117         0.775134         0.460935
 C        -1.944680        -0.460277        -0.363096
 C        -0.826334        -1.131763         0.415911
 C        -0.016674         0.172415         0.650541
 O         1.002365         0.255250         1.313798
 C        -1.087163         0.402035        -1.403852
 O        -1.960797         1.081488        -2.367648
 H        -0.379652         3.262877        -0.702243
 H        -0.842416         2.972324         0.927063
 H         0.799241         2.488442         0.466490
 H        -2.447260         0.622650         1.560596
 H        -3.042931         1.361200        -0.030862
 H        -2.777955        -1.147921        -0.706909
 H        -1.120634        -1.474077         1.389765
 H        -0.194428        -1.834335        -0.036023
 H        -0.181415        -0.014665        -1.832015
 H        -1.584329         1.973378        -2.345082
