19
Iteration:  4943
 C        -0.470965         2.716622         0.089106
 C        -0.871408         1.320147         0.000839
 C        -2.338788         0.877702         0.353842
 C        -1.945789        -0.458719        -0.420642
 C        -0.911745        -1.147445         0.478861
 C        -0.080452         0.095234         0.779430
 O         1.042162         0.111001         1.362550
 C        -0.974484         0.433999        -1.283466
 O        -1.605798         0.997584        -2.498930
 H        -1.289817         3.320958         0.424489
 H         0.328354         2.883227         0.788914
 H        -0.188721         3.107030        -0.844638
 H        -2.752627         0.733357         1.324488
 H        -3.111785         1.387329        -0.277509
 H        -2.808462        -1.189234        -0.751995
 H        -1.362606        -1.581997         1.364828
 H        -0.283406        -1.887185        -0.037989
 H        -0.011898        -0.161273        -1.595674
 H        -0.846400         1.605148        -2.860500
