19
Iteration:   713charge 0 multiplicity 1
 C        -0.181330         2.573486        -0.093658
 C        -0.704454         1.156633        -0.020856
 C        -1.897152         0.763713         0.921490
 C        -2.058148        -0.401033        -0.086699
 C        -0.788710        -1.134660         0.292605
 C         0.216909         0.003395         0.304165
 O         1.413307         0.053450         0.496447
 C        -1.538535         0.503104        -1.190349
 O        -2.427684         1.418127        -1.809954
 H        -0.909092         3.331190         0.043470
 H         0.588340         2.605795         0.677969
 H         0.349149         2.754021        -1.042295
 H        -1.596196         0.705649         2.069860
 H        -2.848548         1.320577         0.887136
 H        -2.984339        -1.001658        -0.044824
 H        -0.976697        -1.842469         1.134645
 H        -0.510271        -1.794069        -0.581682
 H        -0.908215        -0.008287        -1.973372
 H        -3.029364         0.828268        -2.358826
