19
Iteration:  4809charge 0 multiplicity 1
 C        -0.306623         2.697083        -0.100428
 C        -0.777482         1.239196        -0.066869
 C        -2.210740         0.835487         0.326009
 C        -1.994125        -0.493223        -0.431312
 C        -0.731231        -1.182189         0.349396
 C        -0.049384         0.130527         0.773387
 O         0.703950         0.233711         1.782146
 C        -1.039587         0.323780        -1.416974
 O        -1.694925         1.097388        -2.420847
 H         0.409798         2.939402         0.649625
 H         0.064679         2.946255        -1.057114
 H        -1.133033         3.241279         0.136334
 H        -2.410055         0.786863         1.404400
 H        -2.909171         1.446552        -0.250606
 H        -2.863645        -1.170835        -0.798320
 H        -0.882891        -1.723064         1.299481
 H        -0.357890        -1.785694        -0.454414
 H        -0.253519        -0.350254        -1.845205
 H        -0.981168         1.773298        -2.719878
