19
Iteration:  4140charge 0 multiplicity 1
 C        -0.541659         2.711821         0.169484
 C        -0.844698         1.258766         0.033940
 C        -2.331513         0.855487         0.243623
 C        -2.009381        -0.417572        -0.467381
 C        -1.070544        -1.110504         0.567093
 C        -0.074089         0.135084         0.769923
 O         1.044129         0.170565         1.278645
 C        -0.861850         0.425566        -1.278938
 O        -1.467181         0.908819        -2.459688
 H         0.430632         3.038505        -0.032264
 H        -1.266722         3.285960        -0.368933
 H        -0.636913         2.806048         1.174200
 H        -2.932655         0.835764         1.218362
 H        -3.050126         1.397450        -0.572984
 H        -2.699297        -1.116532        -0.950786
 H        -1.337651        -1.336492         1.601981
 H        -0.685914        -2.016410         0.136797
 H         0.093912        -0.076383        -1.601059
 H        -0.804688         1.611455        -2.835892
