19
Iteration:  4807
 C        -0.300621         2.708672        -0.091065
 C        -0.783660         1.220686        -0.070861
 C        -2.225064         0.847635         0.316616
 C        -1.995453        -0.484616        -0.436638
 C        -0.724267        -1.159193         0.351834
 C        -0.051713         0.110533         0.789334
 O         0.704823         0.234513         1.759983
 C        -1.045927         0.324935        -1.415681
 O        -1.684958         1.092100        -2.411464
 H         0.448262         2.913267         0.682954
 H         0.048195         2.949783        -1.085237
 H        -1.210679         3.234633         0.169663
 H        -2.389940         0.759688         1.305924
 H        -2.880094         1.422267        -0.202785
 H        -2.754120        -1.151584        -0.781812
 H        -0.901448        -1.704580         1.338021
 H        -0.340769        -1.776251        -0.465622
 H        -0.272612        -0.393338        -1.818413
 H        -1.026838         1.706731        -2.698619
