19
Iteration:  2712charge 0 multiplicity 1
 C        -0.497589         2.621535         0.262887
 C        -0.884467         1.279376         0.008117
 C        -2.412380         0.893079         0.255278
 C        -1.948556        -0.463608        -0.420480
 C        -0.934751        -1.087316         0.503307
 C        -0.025109         0.120380         0.747372
 O         1.090529         0.220898         1.234716
 C        -1.003728         0.385411        -1.284607
 O        -1.461349         0.968368        -2.465590
 H        -1.346980         3.303093         0.396301
 H         0.301267         2.851884         0.990834
 H        -0.052151         3.014173        -0.619936
 H        -2.889586         0.800385         1.347558
 H        -2.959697         1.540339        -0.544105
 H        -2.707081        -1.105333        -0.798141
 H        -1.426691        -1.560012         1.391857
 H        -0.416204        -1.927775         0.019886
 H        -0.086046        -0.131787        -1.554503
 H        -2.458918         1.208471        -2.476059
