19
Iteration:   545
 C        -0.189447         2.760182         0.060503
 C        -0.639235         1.268398        -0.004399
 C        -2.006920         0.727628         0.937230
 C        -2.062575        -0.443482        -0.092933
 C        -0.747472        -1.146049         0.372128
 C         0.231379        -0.016787         0.262545
 O         1.431945        -0.113158         0.186276
 C        -1.501334         0.506024        -1.237257
 O        -2.456018         1.386878        -1.691957
 H        -0.574240         3.185607         0.987089
 H         0.890940         2.897848         0.037502
 H        -0.626991         3.241961        -0.770365
 H        -1.737273         0.463959         2.081173
 H        -2.854389         1.447769         1.080529
 H        -2.947284        -1.011870        -0.308166
 H        -0.787994        -1.680724         1.311316
 H        -0.484841        -1.982029        -0.332940
 H        -0.806345         0.272167        -2.023337
 H        -3.169679         0.925681        -2.239352
