19
Iteration:  2828charge 0 multiplicity 1
 C        -0.324648         2.604625        -0.035819
 C        -0.902995         1.204633        -0.060547
 C        -2.292433         0.760001         0.447700
 C        -1.867407        -0.480558        -0.450508
 C        -0.791395        -1.098460         0.451842
 C        -0.074743         0.115439         0.773091
 O         0.772107         0.235562         1.599260
 C        -0.966380         0.453618        -1.383466
 O        -1.602603         1.127157        -2.541012
 H         0.287124         2.722273         0.906120
 H         0.330362         2.709396        -0.937610
 H        -1.021572         3.509725        -0.227760
 H        -2.519247         0.472371         1.444519
 H        -3.162510         1.197887        -0.016198
 H        -2.565841        -1.192857        -1.062806
 H        -1.205502        -1.566575         1.410929
 H        -0.297484        -2.032342         0.037498
 H         0.078153         0.025244        -1.779147
 H        -2.467069         1.653840        -2.283878
