19
Iteration:  3757charge 0 multiplicity 1
 C        -0.225901         2.689908        -0.027523
 C        -0.695109         1.194232        -0.075129
 C        -2.178445         0.815387         0.364426
 C        -1.915582        -0.473666        -0.511107
 C        -0.829925        -1.084937         0.289450
 C        -0.053307         0.116073         0.837717
 O         0.648457         0.278841         1.822718
 C        -1.054547         0.326680        -1.444159
 O        -1.740054         1.004759        -2.499110
 H         0.310840         2.911810        -1.000284
 H        -1.219406         3.292698        -0.167657
 H         0.321384         3.009865         0.840376
 H        -2.377604         0.562474         1.337441
 H        -2.991489         1.386124        -0.051033
 H        -2.652649        -1.161541        -0.843384
 H        -1.234935        -1.398164         1.257145
 H        -0.114829        -1.873903        -0.046694
 H        -0.191542        -0.214745        -1.961907
 H        -1.432603         1.949723        -2.406961
