19
Iteration:  4789charge 0 multiplicity 1
 C        -0.328206         2.611562        -0.003842
 C        -0.729565         1.219644        -0.061739
 C        -2.303656         0.840809         0.281616
 C        -1.895102        -0.490391        -0.487679
 C        -0.877386        -1.133350         0.405986
 C        -0.123723         0.179061         0.808489
 O         0.806062         0.263504         1.617090
 C        -0.983426         0.345093        -1.378316
 O        -1.692883         1.037438        -2.377928
 H         0.532544         2.745270         0.652673
 H         0.007764         3.040050        -0.951817
 H        -1.043255         3.286922         0.415392
 H        -2.637921         0.824658         1.439340
 H        -2.980804         1.547970        -0.389375
 H        -2.754507        -1.168561        -0.935360
 H        -1.340099        -1.750785         1.145480
 H        -0.045637        -1.658315        -0.064704
 H        -0.087676        -0.117307        -1.785200
 H        -1.048964         1.573214        -2.788046
