19
Iteration:  3983
 C        -0.159780         2.575920        -0.080754
 C        -0.788852         1.204597        -0.098688
 C        -2.207821         0.740182         0.286541
 C        -1.851326        -0.449587        -0.529346
 C        -0.824047        -1.144882         0.357501
 C        -0.093744         0.155527         0.843215
 O         0.652279         0.320298         1.778900
 C        -0.979398         0.419424        -1.414988
 O        -1.812479         1.073023        -2.348393
 H         0.880829         2.536145         0.056128
 H        -0.426859         3.174019        -0.881938
 H        -0.581343         3.132178         0.796312
 H        -2.471447         0.679313         1.423265
 H        -2.943047         1.377020        -0.220304
 H        -2.478741        -1.188274        -1.118045
 H        -1.364287        -1.625496         1.207836
 H        -0.141018        -1.798075        -0.237942
 H        -0.093839        -0.148735        -1.892741
 H        -1.444262         1.567651        -3.035929
