19
Iteration:  2931charge 0 multiplicity 1
 C        -0.263872         2.584837        -0.031678
 C        -0.829086         1.234044         0.037709
 C        -2.287519         0.721008         0.373235
 C        -1.931095        -0.535320        -0.620493
 C        -0.780211        -1.084498         0.376149
 C        -0.157433         0.169981         0.812563
 O         0.771501         0.344112         1.613922
 C        -1.026364         0.387477        -1.399873
 O        -1.605577         1.066152        -2.412874
 H         0.640916         2.489192         0.677952
 H         0.137004         2.848723        -1.103212
 H        -0.845316         3.443937         0.340904
 H        -2.531988         0.610650         1.477379
 H        -2.927015         1.469959        -0.153951
 H        -2.686051        -1.179145        -0.931830
 H        -1.168495        -1.675703         1.206724
 H         0.095025        -1.593262        -0.116683
 H        -0.075263        -0.072788        -1.697926
 H        -2.463295         1.377075        -2.154568
