19
Iteration:   217charge 0 multiplicity 1
 C        -0.032750         2.556686         0.203807
 C        -0.754023         1.221856         0.197973
 C        -1.886508         0.738417         1.058090
 C        -1.998294        -0.503866         0.034087
 C        -0.727724        -1.259816         0.301299
 C         0.171097         0.034701         0.114080
 O         1.349626         0.120529        -0.304922
 C        -1.595890         0.572292        -1.076012
 O        -2.519401         1.353397        -1.715814
 H         0.957221         2.399851         0.685999
 H         0.298687         2.864870        -0.900415
 H        -0.691045         3.230369         0.748738
 H        -1.763090         0.596968         2.139410
 H        -2.825946         1.241100         0.835311
 H        -2.981848        -0.861009        -0.058687
 H        -0.762685        -1.582002         1.438868
 H        -0.483609        -2.067184        -0.395897
 H        -0.797039         0.319329        -1.874599
 H        -2.826423         1.963066        -1.000772
