19
Iteration:   166
 C        -0.092592         2.707332         0.243100
 C        -0.654729         1.207675         0.071423
 C        -1.837735         0.739590         0.986062
 C        -2.055914        -0.467682        -0.024349
 C        -0.654951        -1.225126         0.148069
 C         0.294102        -0.018930         0.070400
 O         1.476220        -0.051775        -0.078499
 C        -1.669936         0.598144        -1.130453
 O        -2.729164         1.407797        -1.460319
 H        -0.512279         3.258418         1.104125
 H         0.917539         2.639274         0.363391
 H        -0.363093         3.150631        -0.738255
 H        -1.602437         0.459807         2.011184
 H        -2.614251         1.514429         0.919785
 H        -3.030860        -1.020179        -0.114983
 H        -0.465565        -1.671704         1.077164
 H        -0.624256        -2.016461        -0.641326
 H        -1.237653         0.125655        -1.955124
 H        -2.838012         1.383376        -2.468147
