19
Iteration:  2691charge 0 multiplicity 1
 C        -0.392074         2.767294         0.127620
 C        -0.947741         1.316738         0.076082
 C        -2.424653         0.857866         0.279934
 C        -2.015856        -0.516006        -0.394776
 C        -0.830590        -1.181468         0.461742
 C        -0.068692         0.125527         0.709730
 O         1.000101         0.209646         1.289286
 C        -0.930427         0.386265        -1.296415
 O        -1.488425         0.975729        -2.454251
 H        -1.153762         3.517637         0.346260
 H         0.173040         2.661876         1.108823
 H         0.365931         3.138773        -0.477542
 H        -2.742168         0.756270         1.414836
 H        -3.235053         1.407547        -0.380648
 H        -2.756909        -1.153928        -0.921360
 H        -1.188720        -1.624722         1.436150
 H        -0.311486        -1.939418        -0.146666
 H        -0.129552        -0.184528        -1.663332
 H        -2.348666         1.387989        -2.322592
