19
Iteration:   773charge 0 multiplicity 1
 C        -0.299812         2.542078         0.101429
 C        -0.784909         1.174504         0.137949
 C        -2.147157         0.880783         0.848548
 C        -2.056488        -0.326057        -0.123907
 C        -0.747449        -1.151051         0.599037
 C         0.176228         0.018046         0.363667
 O         1.334917         0.011794        -0.009352
 C        -1.313486         0.454012        -1.172726
 O        -2.232842         1.279191        -1.819550
 H         0.306914         2.742899         1.083600
 H         0.466007         2.760173        -0.709179
 H        -1.137270         3.294778        -0.082187
 H        -2.070142         0.697528         1.844231
 H        -2.955835         1.582370         0.611507
 H        -2.906663        -0.940734        -0.445121
 H        -0.967520        -1.419940         1.718307
 H        -0.282282        -2.023864         0.060751
 H        -0.563048         0.015893        -1.814658
 H        -1.922628         1.535080        -2.749070
