19
Iteration:  3006charge 0 multiplicity 1
 C        -0.486204         2.736950         0.120884
 C        -0.967313         1.316732        -0.024059
 C        -2.362042         0.776158         0.263742
 C        -1.865591        -0.510242        -0.449694
 C        -1.008402        -1.205304         0.613034
 C        -0.158153         0.134404         0.829178
 O         0.991074         0.220792         1.266924
 C        -0.872669         0.437965        -1.318909
 O        -1.408717         0.992544        -2.491646
 H         0.634520         2.776360         0.136247
 H        -0.669773         3.343205        -0.818168
 H        -0.813281         3.185065         1.035726
 H        -2.613804         0.570873         1.279542
 H        -3.027184         1.440232        -0.165110
 H        -2.560037        -1.077608        -0.990602
 H        -1.670264        -1.445263         1.469586
 H        -0.395622        -2.085119         0.288511
 H         0.237264         0.132524        -1.476777
 H        -2.256293         1.512217        -2.253694
