19
Iteration:  1552
 C        -0.300509         2.639282         0.053424
 C        -0.796980         1.212215         0.026027
 C        -2.271926         0.741403         0.569634
 C        -1.989007        -0.524999        -0.411115
 C        -0.750736        -1.175014         0.388255
 C         0.139699         0.074150         0.554549
 O         1.236186         0.152750         1.031239
 C        -1.278558         0.461043        -1.285347
 O        -2.011940         1.357853        -2.103322
 H        -1.186913         3.218332         0.146065
 H         0.505233         2.757886         0.814508
 H         0.154612         2.839565        -0.917078
 H        -2.433698         0.521962         1.613914
 H        -3.103032         1.363682         0.177720
 H        -2.758451        -1.273525        -0.729240
 H        -1.037944        -1.549887         1.420689
 H        -0.218350        -2.105651        -0.102100
 H        -0.477289         0.177712        -2.004605
 H        -2.522849         0.765061        -2.684163
