19
Iteration:  2356
 C        -0.271438         2.646646         0.006884
 C        -0.724029         1.171183        -0.095039
 C        -2.227856         0.759513         0.358436
 C        -1.902510        -0.543284        -0.446465
 C        -0.823304        -1.179574         0.377372
 C         0.000197         0.115308         0.727562
 O         0.909010         0.317358         1.510259
 C        -1.104492         0.376605        -1.397877
 O        -1.870143         1.257163        -2.255805
 H        -0.735028         2.946375         0.921678
 H         0.836113         2.597548         0.113903
 H        -0.535949         3.275371        -0.833455
 H        -2.399289         0.657597         1.594977
 H        -3.051939         1.355911        -0.064440
 H        -2.690702        -1.194286        -0.776028
 H        -1.209536        -1.759082         1.232060
 H        -0.168561        -1.730779        -0.313631
 H        -0.293051        -0.072924        -2.020381
 H        -2.206859         0.598172        -2.958158
