19
Iteration:  2497
 C        -0.360899         2.661512         0.073512
 C        -0.874828         1.251220        -0.044816
 C        -2.357218         0.714938         0.389512
 C        -1.905989        -0.517841        -0.439187
 C        -0.857310        -1.027747         0.491032
 C        -0.070169         0.174347         0.724788
 O         0.990301         0.176011         1.299729
 C        -1.016655         0.379730        -1.350800
 O        -1.632458         1.099356        -2.378746
 H         0.741040         2.565951         0.055488
 H        -0.690846         3.296365        -0.818885
 H        -0.716691         3.188544         0.980011
 H        -2.485218         0.367696         1.426489
 H        -3.158852         1.307853         0.015084
 H        -2.487356        -1.220444        -1.134191
 H        -1.432469        -1.378141         1.359516
 H        -0.329521        -1.881582         0.103302
 H         0.017107         0.012346        -1.560057
 H        -2.332279         1.711067        -1.968673
