19
Iteration:  4042
 C        -0.203499         2.625528        -0.103070
 C        -0.768321         1.146729        -0.036142
 C        -2.208661         0.837601         0.226855
 C        -1.868075        -0.520505        -0.478608
 C        -0.808426        -1.115711         0.405684
 C        -0.070473         0.146148         0.791876
 O         0.659791         0.243049         1.758984
 C        -1.017000         0.352774        -1.397449
 O        -1.795592         1.118106        -2.371939
 H         0.736005         2.923784         0.388860
 H        -0.234830         3.024183        -1.155727
 H        -0.950483         3.109228         0.466490
 H        -2.412533         0.760451         1.349628
 H        -2.892610         1.596598        -0.384565
 H        -2.606901        -1.134034        -0.947615
 H        -1.008007        -1.716359         1.282309
 H        -0.144525        -1.713681        -0.201381
 H        -0.186786        -0.268306        -1.873046
 H        -1.280132         1.975424        -2.682588
