19
Iteration:   501charge 0 multiplicity 1
 C        -0.098867         2.496673         0.206912
 C        -0.763515         1.180034         0.153223
 C        -2.076628         0.848539         0.895731
 C        -2.055840        -0.430245         0.047959
 C        -0.739421        -1.185777         0.456852
 C         0.174041         0.027649         0.208765
 O         1.358434         0.123589        -0.149517
 C        -1.424290         0.468182        -1.122893
 O        -2.367748         1.390948        -1.814122
 H        -0.802805         3.335151         0.030370
 H         0.236141         2.688069         1.269885
 H         0.775913         2.692920        -0.414665
 H        -2.045288         0.714769         2.093288
 H        -2.863614         1.630154         0.745563
 H        -2.825636        -1.147100        -0.102378
 H        -0.671667        -1.674572         1.450048
 H        -0.463439        -2.021800        -0.230627
 H        -0.917734        -0.100359        -1.856991
 H        -2.933042         0.809830        -2.430429
