19
Iteration:  1982charge 0 multiplicity 1
 C        -0.166727         2.713033        -0.213804
 C        -0.832249         1.280029        -0.094517
 C        -2.222408         0.683769         0.501614
 C        -1.871023        -0.550170        -0.354733
 C        -0.708700        -1.252200         0.278637
 C         0.047691         0.042459         0.677463
 O         0.918605         0.231302         1.513541
 C        -1.208530         0.491386        -1.343984
 O        -2.018195         1.296877        -2.166612
 H         0.744189         2.499219         0.530874
 H         0.116156         2.930126        -1.246729
 H        -0.702851         3.562410         0.274292
 H        -2.274453         0.623579         1.556419
 H        -3.101632         1.238441         0.142975
 H        -2.679179        -1.161027        -0.772124
 H        -0.954091        -2.013153         1.086040
 H        -0.132029        -1.990652        -0.375112
 H        -0.305109         0.168062        -1.860148
 H        -2.058173         0.814789        -2.952221
