19
Iteration:  1938
 C        -0.326854         2.666776         0.163834
 C        -0.790161         1.261822        -0.081467
 C        -2.308651         0.809529         0.395958
 C        -1.956895        -0.530745        -0.367816
 C        -0.840620        -1.243213         0.520094
 C         0.063489         0.134768         0.679600
 O         1.157869         0.201026         1.180435
 C        -1.121639         0.400870        -1.436340
 O        -1.896913         1.233333        -2.276330
 H         0.241290         2.792783         1.187840
 H         0.271376         3.202296        -0.549173
 H        -1.122916         3.383164         0.306050
 H        -2.530030         0.764303         1.405824
 H        -3.158346         1.253856        -0.101309
 H        -2.822759        -1.110945        -0.713774
 H        -1.173732        -1.728947         1.478629
 H        -0.264509        -2.129864         0.077908
 H        -0.294481        -0.125089        -1.835729
 H        -2.410338         0.769126        -2.885619
