19
Iteration:  4394
 C        -0.403089         2.746923         0.145405
 C        -0.840833         1.256649         0.100384
 C        -2.379718         0.853193         0.223478
 C        -1.956804        -0.446379        -0.508716
 C        -0.941695        -1.097177         0.574445
 C        -0.139651         0.131266         0.827982
 O         0.986028         0.189521         1.394753
 C        -0.972387         0.298418        -1.353758
 O        -1.517524         0.954372        -2.550795
 H         0.479889         3.116112        -0.543253
 H        -1.353340         3.169489        -0.267285
 H        -0.121954         3.083309         1.130041
 H        -2.629332         0.830090         1.273176
 H        -3.062537         1.391809        -0.416683
 H        -2.698463        -1.152652        -0.929818
 H        -1.483088        -1.568137         1.397362
 H        -0.316509        -1.872227         0.200501
 H         0.026316        -0.118224        -1.441965
 H        -1.195361         1.905146        -2.689629
