19
Iteration:  4289charge 0 multiplicity 1
 C        -0.168643         2.679592        -0.060190
 C        -0.688104         1.256797        -0.079555
 C        -2.133987         0.861855         0.257572
 C        -1.916860        -0.510356        -0.442670
 C        -0.794042        -1.179193         0.271229
 C        -0.074466         0.176038         0.861316
 O         0.585614         0.251586         1.829783
 C        -1.011883         0.348007        -1.475437
 O        -1.830917         1.030915        -2.339692
 H         0.891333         2.555174        -0.099092
 H        -0.562642         3.127233        -0.988860
 H        -0.669146         3.245820         0.829387
 H        -2.378434         0.799882         1.358921
 H        -2.979475         1.234807        -0.156397
 H        -2.689778        -0.972512        -0.979487
 H        -0.957924        -1.876862         1.114552
 H        -0.143560        -1.646544        -0.561431
 H        -0.173703        -0.296136        -1.969992
 H        -1.443839         1.726285        -3.024795
