19
Iteration:  4084charge 0 multiplicity 1
 C        -0.219272         2.563711         0.129304
 C        -0.816231         1.263131        -0.001116
 C        -2.384324         0.734135         0.207497
 C        -1.884857        -0.541105        -0.549264
 C        -0.925447        -1.102328         0.537134
 C        -0.132304         0.130999         0.779474
 O         0.862547         0.347804         1.487235
 C        -0.991506         0.454571        -1.361509
 O        -1.687977         1.052501        -2.385901
 H         0.761601         2.391629         0.390126
 H        -0.208535         2.911413        -0.888850
 H        -0.577784         3.327401         0.668540
 H        -2.709599         0.603820         1.289749
 H        -3.111154         1.308496        -0.502497
 H        -2.420481        -1.290833        -1.047531
 H        -1.360495        -1.344739         1.491667
 H        -0.422454        -1.989620         0.160621
 H        -0.012443         0.131988        -1.875890
 H        -0.966634         1.522273        -2.868954
