19
Iteration:  4324
 C        -0.176309         2.504822        -0.080178
 C        -0.759762         1.177117        -0.095302
 C        -2.297649         0.738660         0.271979
 C        -1.862843        -0.560879        -0.474746
 C        -0.852108        -1.179929         0.465517
 C        -0.068617         0.122812         0.847276
 O         0.686430         0.374223         1.738257
 C        -0.979280         0.460605        -1.466728
 O        -1.798683         1.197677        -2.385618
 H         0.914251         2.620841        -0.244351
 H        -0.667902         3.172369        -0.836860
 H        -0.195006         3.055712         1.005425
 H        -2.433673         0.687464         1.304214
 H        -3.069004         1.288628        -0.274569
 H        -2.674281        -1.023439        -1.038224
 H        -1.147251        -1.659194         1.429453
 H        -0.208770        -1.950147        -0.044457
 H        -0.149093         0.008265        -2.138264
 H        -1.102880         1.506287        -3.073009
