19
Iteration:  3376
 C        -0.447756         2.562362         0.100642
 C        -0.788162         1.185173        -0.001233
 C        -2.375438         0.858667         0.245052
 C        -1.948041        -0.486247        -0.514724
 C        -0.823571        -1.159224         0.423457
 C        -0.054564         0.126971         0.812819
 O         0.843916         0.340703         1.571802
 C        -0.955952         0.454530        -1.328193
 O        -1.557699         0.970280        -2.514685
 H         0.666573         2.801819        -0.021590
 H        -1.004921         3.453139        -0.445105
 H        -0.617659         2.792196         1.161030
 H        -2.559489         0.796588         1.320658
 H        -3.026658         1.448386        -0.312536
 H        -2.586196        -1.121616        -0.988840
 H        -1.047689        -1.726174         1.281829
 H        -0.104910        -1.630864        -0.169380
 H        -0.104740        -0.218269        -1.851301
 H        -1.943299         1.928321        -2.411830
