19
Iteration:  1218
 C        -0.221440         2.505003        -0.321311
 C        -0.711981         1.154081        -0.150784
 C        -1.965385         0.750526         0.730555
 C        -1.907483        -0.487488        -0.291081
 C        -0.621333        -1.162509         0.102341
 C         0.202096         0.093897         0.492766
 O         1.052309         0.132243         1.359982
 C        -1.401755         0.455250        -1.372311
 O        -2.320000         1.472041        -1.863391
 H        -0.987254         3.349778        -0.306135
 H         0.515322         2.628086         0.498440
 H         0.205127         2.707668        -1.266208
 H        -1.800554         0.665865         1.828701
 H        -2.844796         1.411415         0.573527
 H        -2.694467        -1.170980        -0.493186
 H        -0.929480        -1.901562         0.950094
 H        -0.019520        -1.941840        -0.661841
 H        -0.881058        -0.129273        -2.241516
 H        -3.230046         1.030789        -1.769083
