19
Iteration:  2972
 C        -0.464623         2.744288         0.066396
 C        -0.851615         1.177371        -0.004377
 C        -2.325764         0.772131         0.197093
 C        -1.974241        -0.508413        -0.500232
 C        -0.874989        -1.136696         0.520645
 C        -0.048762         0.166043         0.803062
 O         0.991523         0.227806         1.512733
 C        -1.028900         0.332627        -1.365834
 O        -1.484711         1.088340        -2.460243
 H         0.474944         2.820262         0.623621
 H        -0.490400         3.225148        -0.940444
 H        -1.233757         3.339075         0.512656
 H        -2.778609         0.689896         1.170121
 H        -2.865728         1.514008        -0.305815
 H        -2.749269        -1.175750        -0.855406
 H        -1.463444        -1.462052         1.404277
 H        -0.378106        -2.088601         0.207539
 H        -0.029552        -0.144543        -1.750864
 H        -2.226451         1.663143        -2.178260
