19
Iteration:  3935
 C        -0.285598         2.557204         0.124823
 C        -0.862105         1.179955        -0.043154
 C        -2.340178         0.810998         0.168521
 C        -1.843470        -0.522260        -0.547444
 C        -0.977651        -1.114861         0.493136
 C        -0.151537         0.194068         0.867529
 O         0.894911         0.344969         1.510364
 C        -0.933571         0.365708        -1.376662
 O        -1.666572         1.036585        -2.386833
 H         0.634332         2.595179        -0.594148
 H        -0.977266         3.457813        -0.135884
 H         0.188909         2.719725         1.142434
 H        -2.642973         0.648199         1.132742
 H        -3.098203         1.465948        -0.306986
 H        -2.724355        -1.063829        -0.924619
 H        -1.504461        -1.526350         1.400878
 H        -0.231411        -1.781782         0.016137
 H        -0.004590        -0.026405        -1.822309
 H        -1.042805         1.765883        -2.790957
