19
Iteration:  1963
 C        -0.271855         2.504705        -0.004926
 C        -0.710539         1.181791         0.052235
 C        -2.238419         0.786611         0.452047
 C        -1.948984        -0.479237        -0.453816
 C        -0.770058        -1.109399         0.305460
 C         0.005460         0.145077         0.649173
 O         0.998196         0.258284         1.349681
 C        -1.092192         0.444807        -1.377544
 O        -2.001546         1.211018        -2.154070
 H         0.544539         2.775851         0.655969
 H         0.026031         2.761248        -1.067493
 H        -1.003392         3.323789         0.205257
 H        -2.361803         0.662635         1.516399
 H        -2.967487         1.538362         0.091686
 H        -2.706847        -1.161204        -0.854562
 H        -1.030835        -1.742270         1.215651
 H        -0.130523        -1.883036        -0.237586
 H        -0.280739        -0.115228        -1.875030
 H        -2.193500         0.659176        -2.913109
