19
Iteration:   433charge 0 multiplicity 1
 C        -0.222039         2.687139        -0.101408
 C        -0.671396         1.182630         0.070440
 C        -1.887873         0.796525         0.943386
 C        -2.048530        -0.447257        -0.033202
 C        -0.739422        -1.230545         0.183945
 C         0.309987        -0.023179         0.222694
 O         1.512649        -0.068843         0.304600
 C        -1.571629         0.526573        -1.169900
 O        -2.642293         1.437049        -1.585108
 H         0.740391         2.623440        -0.609919
 H        -1.036458         3.273696        -0.627294
 H        -0.026928         3.072354         0.829135
 H        -1.469286         0.487959         1.987141
 H        -2.735633         1.513011         1.120135
 H        -2.994124        -0.960764        -0.261549
 H        -0.653288        -1.782727         1.184497
 H        -0.578977        -1.860206        -0.640081
 H        -1.108901         0.134406        -2.037545
 H        -2.568445         1.713980        -2.528222
