19
Iteration:  2841charge 0 multiplicity 1
 C        -0.295066         2.629668        -0.053849
 C        -0.790054         1.254804         0.038100
 C        -2.242681         0.741419         0.334883
 C        -1.870909        -0.513816        -0.483374
 C        -0.788970        -1.230778         0.388948
 C        -0.117765         0.122949         0.811643
 O         0.746344         0.272395         1.669272
 C        -1.033438         0.499981        -1.431464
 O        -1.661917         1.083096        -2.510359
 H         0.437345         2.952108         0.769444
 H         0.312538         2.689582        -1.026274
 H        -1.179913         3.316486         0.036372
 H        -2.439580         0.707647         1.420948
 H        -2.931363         1.390914        -0.187220
 H        -2.764466        -1.061001        -0.711378
 H        -1.279872        -1.615704         1.314229
 H         0.027688        -1.867251        -0.010839
 H        -0.069879         0.072286        -1.919639
 H        -2.272231         1.684877        -2.154513
