19
Iteration:  3390charge 0 multiplicity 1
 C        -0.354184         2.680758         0.072464
 C        -0.891172         1.239407        -0.063667
 C        -2.289686         0.771712         0.292717
 C        -1.872268        -0.526311        -0.458115
 C        -0.815316        -1.177565         0.367984
 C        -0.101092         0.170261         0.828223
 O         0.816044         0.315645         1.684499
 C        -0.954766         0.364380        -1.443826
 O        -1.618608         1.037230        -2.501647
 H         0.687264         2.611085        -0.178252
 H        -0.858219         3.282107        -0.661340
 H        -0.528535         3.115654         1.036256
 H        -2.620697         0.715712         1.342871
 H        -3.006068         1.405082        -0.290674
 H        -2.690786        -1.199880        -0.922358
 H        -1.222693        -1.843919         1.147978
 H        -0.210011        -1.819571        -0.320173
 H         0.068019        -0.020438        -1.714698
 H        -1.908360         1.846193        -2.179976
