19
Iteration:   262charge 0 multiplicity 1
 C        -0.285459         2.599744        -0.003682
 C        -0.714653         1.184436         0.100185
 C        -1.867993         0.720959         1.066664
 C        -1.970381        -0.412941         0.060904
 C        -0.755631        -1.214818         0.187495
 C         0.286281        -0.037179         0.134018
 O         1.466890        -0.071343        -0.048717
 C        -1.562371         0.586083        -1.083680
 O        -2.521528         1.560656        -1.566313
 H         0.335713         2.789973        -0.900423
 H        -1.207597         3.208614        -0.117506
 H         0.189538         2.828936         0.980604
 H        -1.576356         0.593489         2.072378
 H        -2.633553         1.462447         0.889781
 H        -2.749751        -1.124973        -0.032738
 H        -0.745536        -1.678885         1.224445
 H        -0.523681        -2.018169        -0.554765
 H        -1.067983         0.056489        -1.963515
 H        -3.174671         0.956553        -1.994342
