19
Iteration:   248charge 0 multiplicity 1
 C        -0.227011         2.549958         0.060134
 C        -0.751214         1.165391         0.146617
 C        -1.903417         0.743545         1.068847
 C        -2.109689        -0.441701         0.005859
 C        -0.688664        -1.194574         0.267534
 C         0.301020         0.045601         0.157909
 O         1.473091        -0.029721        -0.188168
 C        -1.596397         0.557175        -1.061170
 O        -2.447385         1.485237        -1.620798
 H         0.784658         2.495989        -0.365250
 H        -0.907826         3.293577        -0.555815
 H        -0.046620         2.993297         1.016817
 H        -1.750479         0.449333         2.163901
 H        -2.787749         1.412245         1.137563
 H        -3.111772        -0.822906        -0.080887
 H        -0.624338        -1.790235         1.246241
 H        -0.480089        -1.826640        -0.564265
 H        -0.859678         0.195383        -1.853680
 H        -3.392167         1.221495        -1.652781
