19
Iteration:  3561
 C        -0.401584         2.687200         0.033363
 C        -0.941894         1.233582        -0.005932
 C        -2.484067         0.762752         0.168966
 C        -1.884435        -0.535241        -0.471176
 C        -1.000470        -1.194995         0.628758
 C        -0.103832         0.112430         0.845642
 O         1.024575         0.287964         1.357891
 C        -0.868773         0.416731        -1.332893
 O        -1.476885         1.078737        -2.437936
 H         0.672859         2.785495        -0.221845
 H        -1.045687         3.573902        -0.319844
 H        -0.435201         2.752469         1.074718
 H        -2.797092         0.889975         1.260733
 H        -3.108172         1.242896        -0.555847
 H        -2.472717        -1.162875        -1.015271
 H        -1.603408        -1.546743         1.462409
 H        -0.304231        -1.979313         0.282233
 H        -0.014406        -0.099430        -1.647689
 H        -1.897008         1.895007        -2.115511
