19
Iteration:  3992
 C        -0.188197         2.596670        -0.080395
 C        -0.662751         1.159757        -0.053195
 C        -2.213495         0.778343         0.357786
 C        -1.828612        -0.489633        -0.576911
 C        -0.797610        -1.113316         0.337966
 C        -0.190047         0.150724         0.854662
 O         0.614243         0.295983         1.768915
 C        -0.997825         0.453783        -1.441588
 O        -1.822258         1.040416        -2.363183
 H         0.919395         2.709132         0.010974
 H        -0.427113         2.954785        -1.076207
 H        -0.678251         3.397707         0.608534
 H        -2.351612         0.525510         1.388810
 H        -2.721562         1.571714        -0.060640
 H        -2.747831        -1.018470        -1.046537
 H        -1.085009        -1.694007         1.274550
 H        -0.015612        -1.785472        -0.115656
 H        -0.163117        -0.074696        -1.981421
 H        -1.349302         1.604263        -2.927725
