19
Iteration:   785
 C        -0.222827         2.616345         0.155766
 C        -0.750578         1.221903         0.118852
 C        -2.084496         0.857165         0.829498
 C        -1.981051        -0.447485        -0.068283
 C        -0.784433        -1.086543         0.540755
 C         0.134625         0.035679         0.353425
 O         1.301617        -0.033123         0.031994
 C        -1.340648         0.488280        -1.156828
 O        -2.308587         1.233935        -1.921137
 H         0.508917         2.783492         1.016298
 H         0.186641         2.883430        -0.845372
 H        -1.137947         3.302984         0.511443
 H        -2.121227         0.627709         1.826282
 H        -2.868391         1.573901         0.555471
 H        -2.842165        -1.089802        -0.335457
 H        -1.027016        -1.185523         1.651827
 H        -0.371092        -2.073345         0.186478
 H        -0.618799        -0.018197        -1.827940
 H        -1.722390         1.762340        -2.493255
