19
Iteration:   210charge 0 multiplicity 1
 C        -0.046227         2.532923         0.232730
 C        -0.763811         1.221349         0.154930
 C        -1.915195         0.752479         1.016263
 C        -2.041981        -0.445930         0.053843
 C        -0.691134        -1.270395         0.330745
 C         0.217316        -0.001650         0.090418
 O         1.356480         0.117209        -0.303894
 C        -1.542535         0.595307        -1.040287
 O        -2.591291         1.339499        -1.725092
 H         0.775241         2.294128         0.932240
 H         0.415490         2.702608        -0.652189
 H        -0.663703         3.426018         0.549952
 H        -1.628911         0.523902         2.029855
 H        -2.763361         1.463363         0.958443
 H        -3.023327        -0.979928        -0.158176
 H        -0.680377        -1.698900         1.281025
 H        -0.217129        -2.032327        -0.348741
 H        -0.903229         0.260260        -1.809919
 H        -2.637028         2.135793        -1.096924
