19
Iteration:  3100
 C        -0.362838         2.641969         0.014548
 C        -0.835679         1.216962        -0.089441
 C        -2.319214         0.855440         0.321687
 C        -1.821454        -0.505049        -0.572948
 C        -0.816324        -1.097923         0.480249
 C        -0.138928         0.160070         0.881662
 O         0.829739         0.233223         1.645267
 C        -1.020704         0.361694        -1.405404
 O        -1.602460         1.027839        -2.510969
 H         0.204988         2.878343        -0.894983
 H        -1.175264         3.320542        -0.107417
 H         0.342183         2.819069         0.916020
 H        -2.592407         0.562403         1.374234
 H        -3.132911         1.567444        -0.182395
 H        -2.476299        -1.344911        -0.973416
 H        -1.410791        -1.539733         1.273950
 H        -0.077277        -1.824918         0.160901
 H        -0.143536        -0.123237        -1.669913
 H        -1.865677         1.917417        -2.278577
