19
Iteration:   291charge 0 multiplicity 1
 C        -0.244908         2.661032        -0.106320
 C        -0.695093         1.213731        -0.071236
 C        -1.710318         0.679947         0.962607
 C        -2.016222        -0.443866        -0.021620
 C        -0.754966        -1.261814         0.112287
 C         0.297633         0.029583         0.113105
 O         1.523402        -0.118657         0.300405
 C        -1.656292         0.566493        -1.166730
 O        -2.696336         1.524572        -1.388583
 H        -0.391792         3.139270        -1.079955
 H        -0.855688         3.271010         0.687149
 H         0.789587         2.658930         0.162724
 H        -1.328368         0.566061         2.058830
 H        -2.468103         1.499888         1.109789
 H        -2.949379        -1.032634        -0.087574
 H        -0.736050        -1.726754         1.150242
 H        -0.475519        -1.884914        -0.693745
 H        -1.262235         0.070093        -2.057242
 H        -2.671525         1.613059        -2.385152
