19
Iteration:   375charge 0 multiplicity 1
 C         0.049880         2.526042        -0.340274
 C        -0.641154         1.140297        -0.145288
 C        -1.692302         0.655694         0.953629
 C        -1.955370        -0.458876        -0.063814
 C        -0.648325        -1.213236        -0.057849
 C         0.284526        -0.049038         0.184206
 O         1.359237         0.108991         0.719689
 C        -1.776226         0.628135        -1.179864
 O        -2.905878         1.462047        -1.426186
 H         0.437636         2.827326         0.638251
 H         0.939445         2.505978        -0.915469
 H        -0.554403         3.411024        -0.715645
 H        -1.255483         0.371076         1.872980
 H        -2.531951         1.328438         1.018905
 H        -2.898168        -1.103636         0.033030
 H        -0.745678        -1.926681         0.742950
 H        -0.308150        -1.830806        -0.946477
 H        -1.444654         0.176193        -2.151379
 H        -2.836333         2.368984        -1.154041
