19
Iteration:    79
 C        -0.021227         2.491051        -0.229678
 C        -0.691566         1.149937        -0.060307
 C        -1.614906         0.632132         0.996228
 C        -1.937775        -0.468156        -0.114142
 C        -0.600668        -1.246901        -0.202645
 C         0.278087        -0.010523         0.019021
 O         1.385114         0.045595         0.520257
 C        -1.835339         0.632177        -1.139209
 O        -2.914278         1.562279        -1.172766
 H         0.213068         2.715979        -1.312112
 H        -0.664832         3.227852         0.072716
 H         0.961968         2.741331         0.234322
 H        -1.115689         0.239486         1.908386
 H        -2.542791         1.189494         1.258165
 H        -2.819659        -1.137350        -0.072803
 H        -0.407193        -1.931358         0.528861
 H        -0.503769        -1.592845        -1.259171
 H        -1.566066         0.361038        -2.156650
 H        -2.500856         2.317007        -0.664694
