19
Iteration:  1090
 C        -0.347730         2.699759         0.070476
 C        -0.785850         1.228343         0.149228
 C        -2.129105         0.802398         0.785667
 C        -2.004190        -0.416369        -0.112452
 C        -0.821581        -1.207645         0.469130
 C         0.147908         0.008066         0.472794
 O         1.341481         0.037874         0.421702
 C        -1.289424         0.473063        -1.221989
 O        -2.082055         1.299796        -2.131472
 H         0.539558         2.819012        -0.612872
 H        -1.120671         3.354339        -0.390994
 H        -0.197520         3.055802         1.068563
 H        -2.202662         0.575556         1.887150
 H        -2.989404         1.418148         0.476939
 H        -3.003640        -0.879302        -0.335937
 H        -1.019755        -1.581891         1.457359
 H        -0.520473        -1.925509        -0.160533
 H        -0.471174        -0.039902        -1.694021
 H        -2.866412         0.762900        -2.386599
