19
Iteration:  2603charge 0 multiplicity 1
 C        -0.229934         2.594647        -0.123473
 C        -0.781780         1.181266        -0.053674
 C        -2.276708         0.803007         0.346857
 C        -1.871041        -0.483818        -0.509550
 C        -0.807916        -1.120308         0.334151
 C         0.005384         0.133629         0.849511
 O         0.816892         0.275642         1.741975
 C        -1.010571         0.417843        -1.423275
 O        -1.808461         1.122621        -2.402801
 H        -0.373492         3.014998        -1.135545
 H        -0.796022         3.187241         0.609730
 H         0.780459         2.527419         0.167788
 H        -2.308711         0.725093         1.467156
 H        -3.245461         1.281742         0.049498
 H        -2.701559        -1.078586        -0.943594
 H        -1.117719        -1.908466         1.074772
 H        -0.148238        -1.540209        -0.462196
 H        -0.369506        -0.096353        -2.064504
 H        -2.655037         1.215484        -1.896721
