19
Iteration:  1992
 C        -0.158065         2.703395        -0.240781
 C        -0.752603         1.284475        -0.074285
 C        -2.164146         0.634728         0.518651
 C        -1.902086        -0.633387        -0.355030
 C        -0.659294        -1.268875         0.283879
 C         0.016608         0.097407         0.711328
 O         0.850506         0.195229         1.565327
 C        -1.223366         0.522857        -1.347059
 O        -2.061282         1.360654        -2.219014
 H         0.998738         2.721478         0.183868
 H         0.099746         2.952702        -1.249516
 H        -0.609104         3.617152         0.155595
 H        -2.146093         0.597631         1.625718
 H        -3.058239         1.153681         0.127231
 H        -2.667654        -1.394847        -0.577323
 H        -0.971569        -1.862038         1.175279
 H         0.028601        -1.659018        -0.520052
 H        -0.539251        -0.034928        -2.026240
 H        -2.135407         0.946988        -3.048977
