19
Iteration:  3898charge 0 multiplicity 1
 C        -0.469622         2.713295         0.118424
 C        -0.912061         1.285332         0.070366
 C        -2.304771         0.817396         0.235504
 C        -1.938882        -0.481891        -0.427643
 C        -0.983296        -1.106275         0.568339
 C        -0.153250         0.194463         0.837094
 O         0.960939         0.118950         1.356084
 C        -0.960581         0.408347        -1.412891
 O        -1.429904         0.970838        -2.486476
 H         0.081274         2.906662        -0.837001
 H        -1.404418         3.396869         0.073014
 H         0.151411         3.003496         0.961486
 H        -2.685671         0.740212         1.310259
 H        -2.929135         1.457705        -0.404825
 H        -2.577844        -1.236532        -0.836674
 H        -1.440067        -1.458525         1.470220
 H        -0.431873        -1.952081         0.170116
 H        -0.029105        -0.083460        -1.566380
 H        -1.029490         1.823275        -2.796277
