19
Iteration:  3638
 C        -0.477140         2.672304         0.150355
 C        -0.790616         1.216096        -0.017698
 C        -2.376625         0.889732         0.312450
 C        -1.951609        -0.486697        -0.467390
 C        -0.917400        -1.100456         0.448134
 C        -0.113281         0.182470         0.793338
 O         0.976846         0.218579         1.425188
 C        -0.908054         0.334648        -1.339235
 O        -1.523293         1.067711        -2.422646
 H         0.584123         2.818371         0.365102
 H        -0.566348         3.116336        -0.893838
 H        -1.052837         3.121741         0.800461
 H        -3.004018         0.597785         1.247648
 H        -3.110904         1.448984        -0.319081
 H        -2.634006        -1.122644        -0.935033
 H        -1.415348        -1.486760         1.345010
 H        -0.341482        -1.914994        -0.039204
 H        -0.024508        -0.167976        -1.660081
 H        -1.736796         0.528207        -3.175432
