19
Iteration:  3717
 C        -0.128935         2.610187        -0.120031
 C        -0.769856         1.222591        -0.054006
 C        -2.298515         0.744899         0.267077
 C        -1.889023        -0.528643        -0.541684
 C        -0.767157        -1.159938         0.355382
 C        -0.133389         0.141309         0.859205
 O         0.672896         0.369580         1.734382
 C        -0.998532         0.342664        -1.416957
 O        -1.763135         1.090296        -2.311545
 H         0.864730         2.639683        -0.564560
 H        -0.756184         3.297990        -0.677524
 H        -0.003107         3.103752         0.839652
 H        -2.518191         0.763794         1.439778
 H        -3.161182         1.340320        -0.243285
 H        -2.591345        -1.206474        -0.968504
 H        -1.225200        -1.770302         1.151506
 H        -0.258399        -1.838092        -0.328054
 H        -0.132589        -0.150818        -1.829879
 H        -1.434579         1.996016        -2.428034
