19
Iteration:  1244
 C        -0.145170         2.657837        -0.174112
 C        -0.657445         1.208996        -0.041492
 C        -2.075336         0.663961         0.655818
 C        -1.984482        -0.526989        -0.273915
 C        -0.729492        -1.227424         0.273249
 C         0.127857         0.061970         0.527593
 O         1.165153         0.175815         1.120438
 C        -1.349640         0.523952        -1.324249
 O        -2.294788         1.305645        -2.045588
 H        -0.864818         3.335704         0.319174
 H         0.826278         2.802162         0.331946
 H        -0.161159         3.101529        -1.220025
 H        -2.009802         0.481926         1.768806
 H        -2.984914         1.262138         0.462956
 H        -2.903899        -1.155660        -0.448386
 H        -0.889745        -1.950464         1.062770
 H        -0.185404        -1.834549        -0.509360
 H        -0.688564         0.121481        -2.086123
 H        -2.774660         1.797279        -1.269146
