19
Iteration:  2148
 C        -0.500906         2.669285         0.147292
 C        -0.861620         1.190465         0.120882
 C        -2.315886         0.723351         0.408406
 C        -2.040705        -0.472034        -0.371517
 C        -0.985711        -1.192837         0.659870
 C         0.053793         0.075915         0.735623
 O         1.265760         0.204758         0.948001
 C        -1.119499         0.443587        -1.319396
 O        -1.655392         1.278173        -2.396843
 H        -0.012115         2.788568        -0.878129
 H        -1.365151         3.366896         0.351417
 H         0.306410         2.881240         0.907715
 H        -2.733474         0.563551         1.381836
 H        -2.990956         1.418189        -0.088008
 H        -2.721543        -1.268769        -0.605993
 H        -1.363101        -1.411044         1.712904
 H        -0.400109        -2.127804         0.306216
 H        -0.340970        -0.050664        -1.927610
 H        -1.360391         0.879215        -3.232234
