19
Iteration:  4358
 C        -0.219146         2.572706        -0.009197
 C        -0.828971         1.190590        -0.025947
 C        -2.416636         0.739492         0.178987
 C        -1.867532        -0.486467        -0.564483
 C        -0.935502        -1.117419         0.502214
 C        -0.147685         0.171278         0.809679
 O         0.845661         0.311988         1.527137
 C        -0.911053         0.377262        -1.333340
 O        -1.682911         1.081193        -2.288242
 H         0.716999         2.700137        -0.658889
 H        -1.040579         3.292482        -0.344856
 H        -0.106726         2.971578         1.131858
 H        -2.640025         0.831194         1.170893
 H        -3.168345         1.400302        -0.377028
 H        -2.584804        -1.160863        -1.112448
 H        -1.288973        -1.430221         1.516145
 H        -0.172734        -1.814928         0.092704
 H         0.064389        -0.015010        -1.866552
 H        -0.946242         1.573638        -2.730532
