19
Iteration:  1761
 C        -0.006291         2.531796        -0.077558
 C        -0.715823         1.181842        -0.064151
 C        -2.081256         0.767974         0.586014
 C        -1.867747        -0.452598        -0.338934
 C        -0.631982        -1.202882         0.140862
 C         0.091787         0.070633         0.656987
 O         0.866514         0.290018         1.534421
 C        -1.270755         0.479880        -1.484482
 O        -2.378851         1.208652        -2.150331
 H         0.135772         2.833375        -1.167094
 H        -0.653448         3.257126         0.453718
 H         0.975044         2.367087         0.406571
 H        -2.142419         0.546564         1.588337
 H        -2.873246         1.404675         0.304448
 H        -2.792682        -0.949776        -0.676902
 H        -0.742539        -1.902321         1.031117
 H        -0.098400        -1.660614        -0.770137
 H        -0.443306         0.050277        -2.116892
 H        -1.878535         1.571080        -2.878192
