19
Iteration:  2203
 C        -0.319725         2.695011         0.132560
 C        -0.864751         1.235861         0.147399
 C        -2.398271         0.886299         0.353627
 C        -1.981134        -0.486966        -0.430316
 C        -0.862901        -1.226437         0.380894
 C         0.020868         0.153984         0.780062
 O         1.219116         0.199029         1.112191
 C        -1.118784         0.383364        -1.320774
 O        -1.858186         1.082477        -2.252759
 H        -0.231416         2.987423        -0.940367
 H        -1.161782         3.357053         0.484366
 H         0.671452         2.770785         0.602837
 H        -2.897419         0.790680         1.306544
 H        -2.917721         1.450861        -0.375830
 H        -2.616008        -1.277934        -0.781774
 H        -1.297929        -1.636463         1.337222
 H        -0.161264        -2.026167        -0.068565
 H        -0.158709        -0.061279        -1.737485
 H        -1.180598         1.458200        -2.768023
