19
Iteration:  4361charge 0 multiplicity 1
 C        -0.238406         2.591906         0.013326
 C        -0.852861         1.197744        -0.032107
 C        -2.425529         0.751262         0.145429
 C        -1.879050        -0.465468        -0.537085
 C        -0.930735        -1.109480         0.518897
 C        -0.110492         0.151852         0.812837
 O         0.851815         0.291137         1.513278
 C        -0.897218         0.379368        -1.329678
 O        -1.674639         1.070939        -2.302025
 H         0.664627         2.662052        -0.669816
 H        -1.047614         3.259204        -0.326597
 H        -0.109558         2.888323         1.013653
 H        -2.624037         0.825264         1.195664
 H        -3.154786         1.348888        -0.412232
 H        -2.574974        -1.225198        -0.976544
 H        -1.316390        -1.452480         1.467712
 H        -0.242375        -1.753376         0.036177
 H         0.058256         0.043372        -1.700254
 H        -0.956628         1.653276        -2.769331
