19
Iteration:  4447charge 0 multiplicity 1
 C        -0.388224         2.674837         0.156260
 C        -0.864863         1.241314         0.099317
 C        -2.417403         0.753221         0.217367
 C        -1.951655        -0.457142        -0.463314
 C        -0.984519        -1.106187         0.568829
 C        -0.165404         0.182137         0.857339
 O         1.009592         0.258263         1.306773
 C        -0.967879         0.308265        -1.340835
 O        -1.520551         1.054524        -2.498447
 H         0.778715         2.640476         0.214561
 H        -0.695461         3.416960        -0.666875
 H        -0.595518         3.176806         1.199957
 H        -2.874809         0.844318         1.134800
 H        -2.850629         1.460544        -0.549424
 H        -2.650825        -1.200013        -0.908658
 H        -1.325246        -1.594395         1.520287
 H        -0.406002        -1.896919         0.106893
 H         0.064919        -0.146007        -1.540730
 H        -0.865151         1.147128        -3.254464
