19
Iteration:  3940charge 0 multiplicity 1
 C        -0.267493         2.539464         0.108583
 C        -0.831783         1.201181        -0.025093
 C        -2.319095         0.796897         0.166107
 C        -1.831135        -0.515067        -0.534334
 C        -0.953874        -1.082175         0.486662
 C        -0.157995         0.188632         0.865302
 O         0.857429         0.352261         1.515815
 C        -0.938000         0.338623        -1.366419
 O        -1.707676         1.070355        -2.402204
 H         0.594518         2.531624        -0.481399
 H        -0.849628         3.367996        -0.136129
 H         0.107922         2.683048         1.109430
 H        -2.711446         0.651567         1.268945
 H        -2.972291         1.304478        -0.553634
 H        -2.723011        -1.056990        -0.887666
 H        -1.495098        -1.637930         1.254767
 H        -0.185942        -1.772789         0.090672
 H        -0.008698        -0.060404        -1.853439
 H        -1.040591         1.630809        -2.704343
