19
Iteration:  4551
 C        -0.170994         2.705863        -0.086912
 C        -0.776200         1.273713        -0.083638
 C        -2.250593         0.923614         0.357951
 C        -1.866028        -0.489793        -0.475574
 C        -0.780189        -1.247504         0.289044
 C        -0.085239         0.105062         0.804326
 O         0.622618         0.259025         1.750794
 C        -0.988494         0.324185        -1.378859
 O        -1.794259         0.999412        -2.390499
 H         0.836211         2.764351         0.434889
 H        -0.008168         3.231688        -1.071662
 H        -0.876239         3.325332         0.546376
 H        -2.565546         0.834666         1.501001
 H        -2.923247         1.460887        -0.433463
 H        -2.736504        -1.084912        -0.880725
 H        -0.977285        -1.840525         1.213459
 H         0.108144        -1.522746        -0.403477
 H        -0.141240        -0.289552        -1.853202
 H        -1.446384         1.847965        -2.591072
