19
Iteration:  2316charge 0 multiplicity 1
 C        -0.136823         2.672015        -0.221877
 C        -0.711609         1.222519        -0.151258
 C        -2.198741         0.614596         0.463605
 C        -1.908900        -0.554809        -0.417974
 C        -0.751196        -1.144203         0.289134
 C         0.006348         0.080233         0.746696
 O         0.788524         0.269460         1.683185
 C        -1.167716         0.425520        -1.369811
 O        -1.989073         1.278234        -2.203876
 H        -0.808480         3.488619         0.128152
 H         0.768242         3.004322         0.320915
 H         0.000333         3.071422        -1.280494
 H        -2.174143         0.452036         1.431587
 H        -3.049835         1.159267         0.044076
 H        -2.606717        -1.338662        -0.782134
 H        -1.054694        -1.856386         1.122457
 H        -0.061593        -1.807972        -0.397037
 H        -0.311985        -0.101422        -1.928873
 H        -1.557632         1.392271        -3.039184
