19
Iteration:  3203charge 0 multiplicity 1
 C        -0.207889         2.580073        -0.016381
 C        -0.780609         1.205184        -0.068726
 C        -2.258652         0.785298         0.171143
 C        -1.778762        -0.516899        -0.464712
 C        -0.728607        -1.149450         0.418718
 C        -0.108784         0.111810         0.773663
 O         0.621675         0.319475         1.715617
 C        -1.005743         0.463624        -1.441391
 O        -1.822296         1.116247        -2.296853
 H         0.862851         2.537554         0.110771
 H        -0.550176         3.319786        -0.774448
 H        -0.507744         3.048775         0.849129
 H        -2.488765         0.835565         1.267295
 H        -2.886356         1.458175        -0.362632
 H        -2.444983        -1.244366        -0.922683
 H        -1.079910        -1.778923         1.281538
 H        -0.025684        -1.699462        -0.259532
 H        -0.165379         0.137668        -1.930453
 H        -1.564337         0.674594        -3.081194
