19
Iteration:  4948
 C        -0.465531         2.714575         0.097987
 C        -0.861609         1.287634         0.003150
 C        -2.365400         0.890941         0.323920
 C        -1.966393        -0.467910        -0.432142
 C        -0.884292        -1.148200         0.493830
 C        -0.081407         0.126806         0.818431
 O         1.065267         0.087468         1.332308
 C        -0.990840         0.449102        -1.297498
 O        -1.581183         1.004794        -2.480776
 H        -1.444926         3.226649         0.351381
 H         0.320579         2.956158         0.862590
 H        -0.272695         3.056224        -0.995850
 H        -2.879574         0.694998         1.420563
 H        -3.043883         1.463746        -0.288896
 H        -2.647123        -1.130233        -0.800755
 H        -1.469398        -1.467514         1.393201
 H        -0.264014        -1.887295        -0.026939
 H        -0.178272        -0.182953        -1.456226
 H        -0.945251         1.563081        -2.848461
