19
Iteration:   265charge 0 multiplicity 1
 C        -0.296869         2.630405        -0.007786
 C        -0.687299         1.169601         0.076934
 C        -1.856984         0.726693         1.044106
 C        -1.961730        -0.418838         0.068881
 C        -0.732632        -1.221506         0.190580
 C         0.276253        -0.064603         0.118777
 O         1.455518        -0.073168        -0.014719
 C        -1.567254         0.585130        -1.092637
 O        -2.536867         1.569456        -1.552259
 H         0.252911         2.836226        -0.932192
 H        -1.176095         3.161412        -0.044137
 H         0.300207         2.880074         0.926973
 H        -1.613515         0.577873         2.089393
 H        -2.660618         1.475405         0.994760
 H        -2.843102        -1.136100        -0.043150
 H        -0.763405        -1.616166         1.163900
 H        -0.538223        -2.011119        -0.599172
 H        -1.077331         0.081593        -1.904830
 H        -3.131371         0.945764        -2.059071
