19
Iteration:  1467
 C        -0.034619         2.668511        -0.158640
 C        -0.672706         1.265827        -0.118735
 C        -1.997895         0.773052         0.592178
 C        -1.860460        -0.544263        -0.427622
 C        -0.658012        -1.249368         0.139807
 C         0.114282         0.047694         0.576680
 O         0.974050         0.151411         1.456784
 C        -1.301042         0.483991        -1.414314
 O        -2.494974         1.272628        -1.878913
 H         0.518931         3.049450        -1.118061
 H        -0.742966         3.494064         0.166189
 H         0.778209         2.745165         0.521743
 H        -2.243757         0.586202         1.682524
 H        -2.830709         1.481199         0.310857
 H        -2.707427        -1.168370        -0.766038
 H        -0.732658        -2.014070         0.873769
 H        -0.219813        -1.663111        -0.708788
 H        -0.597697         0.204068        -2.216446
 H        -2.452943         1.167704        -2.913378
