19
Iteration:  2204charge 0 multiplicity 1
 C        -0.320257         2.688866         0.131973
 C        -0.857622         1.232322         0.144901
 C        -2.400158         0.891112         0.353659
 C        -1.982769        -0.488132        -0.429539
 C        -0.860690        -1.234777         0.383725
 C         0.024886         0.146414         0.774287
 O         1.216431         0.205495         1.120900
 C        -1.121253         0.395937        -1.327115
 O        -1.863464         1.079375        -2.256866
 H        -0.239018         2.986854        -0.932401
 H        -1.163940         3.383211         0.502860
 H         0.696968         2.766169         0.609658
 H        -2.883254         0.818256         1.272643
 H        -2.921753         1.456183        -0.356003
 H        -2.590309        -1.293152        -0.757303
 H        -1.288776        -1.638826         1.356437
 H        -0.159162        -2.040086        -0.085507
 H        -0.189692        -0.060811        -1.712908
 H        -1.167481         1.493628        -2.773857
