19
Iteration:  2152charge 0 multiplicity 1
 C        -0.505495         2.683728         0.113186
 C        -0.884894         1.192407         0.149567
 C        -2.305664         0.730287         0.428053
 C        -2.003935        -0.480074        -0.386355
 C        -0.991528        -1.212298         0.679150
 C         0.055053         0.057003         0.729542
 O         1.253434         0.200534         0.939220
 C        -1.111019         0.469163        -1.326357
 O        -1.663185         1.284914        -2.403374
 H        -0.010108         2.903542        -0.807554
 H        -1.382019         3.368566         0.341726
 H         0.324425         2.747984         0.883363
 H        -2.591157         0.686475         1.487394
 H        -3.069515         1.228573        -0.177067
 H        -2.768538        -1.221262        -0.706786
 H        -1.370177        -1.392116         1.689661
 H        -0.443138        -2.125659         0.401308
 H        -0.330555        -0.135087        -1.786044
 H        -1.295936         0.908799        -3.221893
