19
Iteration:   928charge 0 multiplicity 1
 C        -0.095639         2.596978        -0.418097
 C        -0.595334         1.167623        -0.186798
 C        -1.872633         0.725401         0.825914
 C        -2.005344        -0.494974        -0.157179
 C        -0.653549        -1.171138         0.112963
 C         0.221262        -0.004378         0.346659
 O         1.093210         0.103063         1.186596
 C        -1.463023         0.505037        -1.317276
 O        -2.515434         1.441823        -1.707636
 H        -0.863261         3.269698        -0.693997
 H         0.252555         2.966641         0.527423
 H         0.619987         2.618263        -1.222983
 H        -1.526713         0.508389         1.785342
 H        -2.569499         1.512189         0.782124
 H        -2.957425        -1.103008        -0.175399
 H        -0.442747        -1.935971         0.926526
 H        -0.301823        -1.618356        -0.914594
 H        -1.027071         0.158122        -2.238023
 H        -3.340349         1.028671        -1.574564
