19
Iteration:   858charge 0 multiplicity 1
 C        -0.012031         2.636566        -0.112317
 C        -0.694708         1.195554        -0.073716
 C        -1.990750         0.808189         0.849238
 C        -2.004501        -0.415734        -0.127577
 C        -0.749719        -1.250243         0.217353
 C         0.182909         0.018530         0.380233
 O         1.338309         0.133590         0.743661
 C        -1.543929         0.449183        -1.276734
 O        -2.555069         1.284814        -1.822303
 H         0.804338         2.769130        -0.865556
 H        -0.796287         3.395871        -0.172961
 H         0.519351         2.650933         0.717121
 H        -1.619393         0.643471         1.921305
 H        -2.926492         1.428503         0.712579
 H        -2.790619        -1.125166        -0.354937
 H        -0.904749        -1.773181         1.216682
 H        -0.480092        -1.982291        -0.520832
 H        -0.876204         0.008795        -2.025340
 H        -2.195221         1.996185        -2.324160
