19
Iteration:  3741
 C        -0.263070         2.584660        -0.143455
 C        -0.761709         1.231836        -0.066008
 C        -2.185945         0.780922         0.361044
 C        -1.848533        -0.513225        -0.440510
 C        -0.757141        -1.209810         0.432112
 C        -0.071267         0.168123         0.783776
 O         0.589624         0.255298         1.786626
 C        -1.018191         0.462802        -1.423735
 O        -1.746389         1.069434        -2.515276
 H         0.579718         2.668500        -0.814791
 H        -0.943523         3.362822        -0.313152
 H         0.257095         2.846733         0.905749
 H        -2.357278         0.951646         1.492664
 H        -2.841267         1.544405        -0.129654
 H        -2.738918        -1.127205        -0.829667
 H        -1.167112        -1.758152         1.297971
 H        -0.145506        -1.878558        -0.217138
 H        -0.107235         0.041972        -1.802136
 H        -1.643951         2.093113        -2.632060
