19
Iteration:  4452
 C        -0.343450         2.653486         0.143688
 C        -0.914206         1.248353         0.100467
 C        -2.393065         0.769074         0.185782
 C        -1.980635        -0.515076        -0.473798
 C        -0.943681        -1.086952         0.588820
 C        -0.144614         0.219539         0.870831
 O         1.031092         0.245747         1.331979
 C        -0.964791         0.305181        -1.329249
 O        -1.536890         1.076218        -2.481995
 H         0.731317         2.559658         0.210242
 H        -0.583596         3.374197        -0.603275
 H        -0.725433         3.129376         0.995229
 H        -3.074008         0.884850         1.134942
 H        -2.990315         1.268519        -0.563289
 H        -2.704559        -1.099502        -1.036191
 H        -1.546487        -1.596263         1.352058
 H        -0.328482        -1.826693         0.022572
 H         0.000533        -0.074488        -1.613133
 H        -0.942305         1.117388        -3.203723
