19
Iteration:  4954charge 0 multiplicity 1
 C        -0.480092         2.733455         0.086066
 C        -0.850973         1.195658         0.070525
 C        -2.412556         0.851873         0.282244
 C        -1.965690        -0.436833        -0.439692
 C        -0.886602        -1.100766         0.523104
 C        -0.032045         0.169185         0.875171
 O         1.059100         0.067984         1.266278
 C        -1.052927         0.432202        -1.323455
 O        -1.544652         1.010970        -2.428732
 H        -1.437079         3.161598         0.277581
 H         0.271711         3.042509         0.789089
 H        -0.250414         3.030240        -0.892466
 H        -2.757242         0.865130         1.278892
 H        -2.957804         1.619501        -0.331304
 H        -2.670615        -1.182871        -1.100709
 H        -1.418456        -1.441962         1.404480
 H        -0.281579        -1.933665         0.117994
 H        -0.072305        -0.186547        -1.570101
 H        -0.953300         1.627583        -2.930697
