19
Iteration:  1626
 C        -0.332233         2.634667         0.303355
 C        -0.846379         1.250648         0.191030
 C        -2.348868         0.799980         0.523794
 C        -2.052779        -0.468757        -0.309814
 C        -0.857557        -1.186465         0.540341
 C         0.088762         0.075555         0.598717
 O         1.310477         0.202400         0.649554
 C        -1.212140         0.430944        -1.242260
 O        -1.885360         1.098758        -2.359832
 H        -0.113106         2.766575         1.323133
 H         0.503376         2.873849        -0.356924
 H        -1.228527         3.380301         0.183329
 H        -2.701724         0.731333         1.517232
 H        -2.884016         1.617316         0.047567
 H        -2.894933        -1.066924        -0.726873
 H        -1.235948        -1.449504         1.518256
 H        -0.349142        -2.068328         0.192907
 H        -0.370322         0.063625        -1.791165
 H        -1.261023         1.898704        -2.498715
