19
Iteration:  4858charge 0 multiplicity 1
 C        -0.125982         2.577797        -0.122898
 C        -0.733147         1.207209        -0.141006
 C        -2.228930         0.719436         0.278141
 C        -1.839944        -0.537422        -0.568454
 C        -0.816929        -1.142207         0.365005
 C        -0.068489         0.210246         0.846421
 O         0.632146         0.317113         1.769687
 C        -0.976362         0.425408        -1.433065
 O        -1.891095         1.106152        -2.241150
 H        -0.018174         2.965478         0.929539
 H         0.911207         2.435217        -0.564699
 H        -0.811076         3.357686        -0.690763
 H        -2.452483         0.455322         1.455867
 H        -2.971148         1.408247        -0.289230
 H        -2.553112        -1.222723        -1.020731
 H        -1.269837        -1.661628         1.221763
 H        -0.061584        -1.785309        -0.151225
 H        -0.167652        -0.038305        -1.987359
 H        -1.475262         1.801578        -2.702231
