19
Iteration:  2845charge 0 multiplicity 1
 C        -0.273962         2.669752        -0.043106
 C        -0.737510         1.257263         0.015282
 C        -2.252691         0.737220         0.304558
 C        -1.874374        -0.539940        -0.513062
 C        -0.814527        -1.219893         0.383296
 C        -0.097677         0.133229         0.830378
 O         0.743004         0.286148         1.688305
 C        -1.049795         0.445883        -1.374835
 O        -1.680990         1.086962        -2.512703
 H         0.413794         2.960580         0.727717
 H         0.262374         2.709338        -0.997574
 H        -1.168358         3.223343         0.080631
 H        -2.384942         0.755954         1.430066
 H        -2.866424         1.496547        -0.248560
 H        -2.694802        -1.176935        -0.834048
 H        -1.195848        -1.774730         1.234761
 H        -0.079217        -1.818917        -0.146151
 H        -0.216633         0.106117        -1.885333
 H        -2.330859         1.755752        -2.066988
