19
Iteration:   288charge 0 multiplicity 1
 C        -0.253317         2.681007        -0.094285
 C        -0.694543         1.224565        -0.053354
 C        -1.717889         0.682205         0.972668
 C        -2.041337        -0.433490        -0.019942
 C        -0.748549        -1.288244         0.149629
 C         0.294750         0.021435         0.098646
 O         1.514134        -0.120672         0.268973
 C        -1.651250         0.569975        -1.163042
 O        -2.668310         1.525006        -1.402189
 H        -0.399381         3.112829        -1.078202
 H        -0.879446         3.209170         0.571772
 H         0.766974         2.727019         0.338219
 H        -1.336735         0.552695         2.005012
 H        -2.443633         1.517634         1.029014
 H        -3.018652        -1.041921        -0.075272
 H        -0.585958        -1.754475         1.085936
 H        -0.401861        -1.935671        -0.683831
 H        -1.250375         0.125220        -2.047104
 H        -2.716801         1.539478        -2.378602
