19
Iteration:  1054charge 0 multiplicity 1
 C        -0.425021         2.635203         0.060993
 C        -0.766926         1.245449         0.161881
 C        -2.159202         0.808089         0.755551
 C        -2.051435        -0.396358        -0.078278
 C        -0.794864        -1.048682         0.496013
 C         0.121168         0.043326         0.396183
 O         1.316056        -0.044889         0.239364
 C        -1.280412         0.392047        -1.132966
 O        -2.010479         1.273753        -1.964425
 H         0.558271         2.899427         0.636732
 H        -0.603165         3.026448        -0.970545
 H        -1.174229         3.172703         0.697405
 H        -2.407399         0.630904         1.845031
 H        -3.000790         1.419036         0.297402
 H        -2.887433        -0.943873        -0.443707
 H        -0.885529        -1.305038         1.564465
 H        -0.434634        -1.972885         0.062137
 H        -0.541034        -0.059125        -1.826468
 H        -1.698794         1.328839        -2.865077
