19
Iteration:  4091charge 0 multiplicity 1
 C        -0.270186         2.619563         0.154801
 C        -0.827268         1.174310        -0.031314
 C        -2.409644         0.751833         0.152635
 C        -1.912072        -0.506126        -0.478320
 C        -0.930016        -1.084751         0.564600
 C        -0.128343         0.177579         0.789116
 O         0.899744         0.297549         1.431736
 C        -0.986202         0.441991        -1.357007
 O        -1.652286         1.053279        -2.406844
 H         0.845888         2.392095         0.414762
 H        -0.138299         3.011087        -0.883127
 H        -0.526400         3.431101         1.025534
 H        -2.737074         0.599915         1.137746
 H        -3.099695         1.161149        -0.466467
 H        -2.458292        -1.356971        -0.957485
 H        -1.485629        -1.504551         1.444767
 H        -0.209659        -1.918460         0.279603
 H         0.002966         0.195390        -1.648138
 H        -1.070485         1.496999        -2.948264
