19
Iteration:  2196charge 0 multiplicity 1
 C        -0.346897         2.701136         0.099677
 C        -0.890578         1.263473         0.165053
 C        -2.370681         0.810458         0.349967
 C        -1.964241        -0.500007        -0.426531
 C        -0.873148        -1.120195         0.410961
 C        -0.000457         0.172472         0.788823
 O         1.199582         0.158156         1.047521
 C        -1.074023         0.308605        -1.274110
 O        -1.820526         1.101982        -2.225185
 H        -0.135119         2.992271        -0.921326
 H        -1.152732         3.376083         0.541600
 H         0.604321         2.854996         0.720306
 H        -2.813413         0.709506         1.322450
 H        -2.985306         1.415559        -0.345010
 H        -2.815961        -0.995826        -0.962886
 H        -1.342736        -1.654857         1.259640
 H        -0.234457        -1.871842        -0.089637
 H        -0.214500        -0.012120        -1.772335
 H        -1.204857         1.400212        -2.943791
