19
Iteration:  3026charge 0 multiplicity 1
 C        -0.370577         2.729007         0.164369
 C        -0.920922         1.241140         0.140986
 C        -2.516614         0.790559         0.169231
 C        -1.952089        -0.532602        -0.484125
 C        -0.937802        -1.078357         0.574388
 C        -0.137305         0.154098         0.788599
 O         1.029795         0.258610         1.245768
 C        -0.971403         0.375487        -1.257900
 O        -1.367465         0.993577        -2.456189
 H         0.647960         2.852252        -0.194672
 H        -1.035660         3.267043        -0.490922
 H        -0.426301         3.142413         1.135131
 H        -2.999137         0.866981         1.110744
 H        -3.016310         1.246743        -0.677747
 H        -2.569620        -1.248259        -1.025763
 H        -1.456113        -1.504410         1.447512
 H        -0.257593        -1.848558         0.148604
 H         0.034935        -0.144520        -1.378077
 H        -2.297254         1.193450        -2.527882
