19
Iteration:  3146
 C        -0.188452         2.585933        -0.151078
 C        -0.770925         1.155698        -0.072946
 C        -2.265392         0.747687         0.318158
 C        -1.818453        -0.577615        -0.488320
 C        -0.714203        -1.204251         0.359479
 C        -0.117157         0.186938         0.780308
 O         0.551266         0.368979         1.779972
 C        -0.933600         0.380746        -1.417080
 O        -1.831094         1.152811        -2.347581
 H         0.615289         2.829466        -0.824603
 H        -0.987691         3.305955        -0.310731
 H         0.130386         2.630276         0.878593
 H        -2.308869         0.842315         1.438587
 H        -2.897846         1.447138        -0.333807
 H        -2.518391        -1.122428        -1.056142
 H        -1.039553        -1.619402         1.303118
 H        -0.018413        -1.910486        -0.097936
 H        -0.088425         0.050455        -1.841497
 H        -1.204968         1.906779        -2.672272
