19
Iteration:  4719
 C        -0.384427         2.679950         0.189331
 C        -0.896593         1.238483         0.073614
 C        -2.412053         0.877333         0.157296
 C        -1.895925        -0.510915        -0.473088
 C        -1.028307        -1.153242         0.622082
 C        -0.165634         0.168757         0.818855
 O         0.988378         0.288026         1.228938
 C        -0.904377         0.303249        -1.332514
 O        -1.496237         0.977152        -2.416622
 H         0.617471         2.954336        -0.058528
 H        -1.015927         3.330567        -0.367682
 H        -0.428513         2.953974         1.230408
 H        -3.010038         0.967601         1.104066
 H        -2.828714         1.400561        -0.653853
 H        -2.539057        -1.138211        -1.025834
 H        -1.616249        -1.447311         1.549039
 H        -0.370528        -1.963967         0.228947
 H         0.053908        -0.244364        -1.595191
 H        -0.958708         1.705999        -2.749019
