19
Iteration:  3020charge 0 multiplicity 1
 C        -0.393203         2.750812         0.120984
 C        -0.892128         1.280091         0.114977
 C        -2.465547         0.800381         0.167835
 C        -1.937187        -0.537289        -0.501908
 C        -0.959644        -1.168436         0.588080
 C        -0.120605         0.152487         0.824253
 O         1.001695         0.245721         1.236080
 C        -0.971795         0.438404        -1.213688
 O        -1.370311         0.984830        -2.475023
 H         0.727364         2.719511        -0.017162
 H        -1.072567         3.437267        -0.501884
 H        -0.601309         3.185532         1.167249
 H        -2.907897         0.802386         1.222430
 H        -3.229492         1.116863        -0.623625
 H        -2.575811        -1.201564        -1.108671
 H        -1.318496        -1.457079         1.601199
 H        -0.327817        -2.008340         0.263042
 H        -0.094446        -0.127872        -1.555597
 H        -2.277054         1.257574        -2.506689
