19
Iteration:    21
 C        -0.056339         2.580579        -0.001852
 C        -0.663243         1.182202        -0.062995
 C        -1.700671         0.633435         1.053952
 C        -1.998971        -0.437534        -0.033058
 C        -0.661531        -1.222421        -0.089582
 C         0.319434        -0.000712        -0.034024
 O         1.519107        -0.068609         0.204864
 C        -1.758179         0.693048        -1.075697
 O        -2.906877         1.567202        -1.294513
 H         0.883756         2.480583         0.509721
 H         0.227308         2.932823        -1.036526
 H        -0.725270         3.285723         0.461040
 H        -1.271831         0.330133         1.988004
 H        -2.480569         1.355030         1.237233
 H        -2.879718        -1.073468        -0.063289
 H        -0.393218        -2.009197         0.731780
 H        -0.450892        -1.749319        -1.007891
 H        -1.305062         0.395243        -1.996458
 H        -3.649505         0.952065        -1.156501
