19
Iteration:  2758
 C        -0.411992         2.719080         0.169379
 C        -0.900006         1.276507         0.070421
 C        -2.394221         0.712451         0.211029
 C        -1.884761        -0.489969        -0.474268
 C        -0.974313        -1.057936         0.571175
 C        -0.094138         0.154123         0.786522
 O         1.039084         0.188862         1.242688
 C        -0.961402         0.379676        -1.327003
 O        -1.534855         1.024827        -2.468741
 H        -0.920840         3.211760         0.973197
 H         0.633692         2.640382         0.517502
 H        -0.419172         3.373030        -0.671087
 H        -2.704468         0.711918         1.307641
 H        -3.005730         1.408682        -0.448037
 H        -2.512014        -1.206053        -1.044836
 H        -1.408100        -1.282379         1.556467
 H        -0.354683        -1.938785         0.327149
 H        -0.074417        -0.165057        -1.608867
 H        -2.314738         1.506759        -2.061937
