19
Iteration:  1235charge 0 multiplicity 1
 C        -0.157484         2.658436        -0.222316
 C        -0.626685         1.193843        -0.115037
 C        -2.028828         0.647964         0.641884
 C        -2.019520        -0.528889        -0.313061
 C        -0.662893        -1.190238         0.241171
 C         0.114145         0.064699         0.511690
 O         1.115541         0.153287         1.217744
 C        -1.414709         0.461904        -1.334017
 O        -2.268337         1.365137        -1.946112
 H        -0.919417         3.298802         0.120410
 H         0.760695         2.853385         0.331956
 H        -0.009583         2.896583        -1.349857
 H        -1.964723         0.383283         1.692062
 H        -2.795863         1.428155         0.602235
 H        -2.962600        -1.160808        -0.458495
 H        -0.536523        -1.785246         1.094528
 H        -0.250465        -1.651346        -0.530931
 H        -0.691169         0.173853        -2.033421
 H        -3.110711         1.588558        -1.408027
