19
Iteration:  4186charge 0 multiplicity 1
 C        -0.365091         2.662563         0.093563
 C        -0.902422         1.266461         0.042018
 C        -2.461725         0.765816         0.196488
 C        -1.914902        -0.518735        -0.477649
 C        -0.990120        -1.108868         0.537670
 C        -0.124372         0.170435         0.811117
 O         0.985696         0.230948         1.347031
 C        -0.949810         0.381091        -1.257814
 O        -1.487017         1.050817        -2.405740
 H         0.506522         2.770577        -0.577977
 H        -1.124366         3.205261        -0.433863
 H        -0.081288         3.062634         0.963214
 H        -2.754055         0.733031         1.335758
 H        -3.139805         1.563650        -0.346176
 H        -2.690776        -1.149616        -1.063653
 H        -1.598700        -1.557079         1.349307
 H        -0.346580        -1.907274         0.184846
 H         0.004782        -0.106012        -1.637360
 H        -0.724130         1.460201        -2.846079
