19
Iteration:  3564
 C        -0.397943         2.681109         0.041002
 C        -0.975106         1.223539        -0.002381
 C        -2.478170         0.763612         0.183643
 C        -1.877202        -0.539400        -0.485128
 C        -1.002407        -1.198526         0.633530
 C        -0.086382         0.115012         0.870962
 O         1.019107         0.287562         1.334249
 C        -0.883032         0.391474        -1.340206
 O        -1.461750         1.087170        -2.448223
 H         0.695284         2.780353        -0.272206
 H        -1.067643         3.550889        -0.384921
 H        -0.435783         2.914214         1.207069
 H        -2.748412         0.914405         1.214782
 H        -3.125794         1.301157        -0.533198
 H        -2.502194        -1.185575        -1.062370
 H        -1.595110        -1.446297         1.515631
 H        -0.392060        -1.988813         0.275639
 H         0.176620         0.012755        -1.565571
 H        -1.982426         1.914613        -2.065629
