19
Iteration:  4225
 C        -0.185353         2.566941         0.028688
 C        -0.783572         1.181679        -0.056498
 C        -2.323672         0.790471         0.186285
 C        -1.911232        -0.544977        -0.562028
 C        -0.933572        -1.132562         0.528890
 C        -0.135070         0.155099         0.856043
 O         0.828541         0.349845         1.560671
 C        -1.000238         0.372557        -1.381989
 O        -1.706190         1.151370        -2.341761
 H         0.858791         2.570621        -0.343248
 H        -0.818917         3.297234        -0.592771
 H        -0.309866         3.137374         1.138484
 H        -2.587541         0.677079         1.156690
 H        -3.064029         1.142221        -0.484960
 H        -2.417519        -1.409271        -0.863670
 H        -1.435778        -1.683331         1.334322
 H        -0.185605        -1.774598         0.004720
 H        -0.158858        -0.206263        -1.774330
 H        -1.047744         1.576313        -2.930958
