19
Iteration:  3799charge 0 multiplicity 1
 C        -0.237866         2.591555         0.057610
 C        -0.816121         1.213240         0.090795
 C        -2.347317         0.841343         0.154922
 C        -1.818753        -0.493887        -0.549447
 C        -0.811691        -1.145190         0.517760
 C        -0.139187         0.146496         0.772416
 O         0.764868         0.319762         1.557376
 C        -1.000286         0.366253        -1.390623
 O        -1.714548         1.070205        -2.381368
 H         0.319688         2.683799        -0.914101
 H        -0.964252         3.464323         0.206518
 H         0.574458         2.660004         0.923538
 H        -2.728769         0.840984         1.147696
 H        -2.860066         1.449895        -0.533474
 H        -2.635176        -1.166537        -0.907546
 H        -1.530513        -1.514619         1.238722
 H        -0.196121        -2.039376         0.295425
 H        -0.123809        -0.147278        -1.778162
 H        -1.088450         1.305768        -2.997322
