19
Iteration:  4862
 C        -0.114301         2.565286        -0.103624
 C        -0.741563         1.233161        -0.158315
 C        -2.226321         0.710920         0.259380
 C        -1.816936        -0.552775        -0.564831
 C        -0.807960        -1.121340         0.364236
 C        -0.091402         0.189404         0.850568
 O         0.650974         0.326282         1.762345
 C        -1.016808         0.434957        -1.404329
 O        -1.896799         1.105557        -2.233328
 H        -0.084034         2.968918         0.938255
 H         0.946428         2.502015        -0.477775
 H        -0.668895         3.342644        -0.714884
 H        -2.549075         0.636032         1.248092
 H        -2.832077         1.283025        -0.333888
 H        -2.447327        -1.305787        -0.986978
 H        -1.295639        -1.718067         1.214366
 H        -0.159552        -1.882848        -0.147610
 H        -0.235238        -0.087346        -2.026210
 H        -1.448077         1.851054        -2.745786
