19
Iteration:   845charge 0 multiplicity 1
 C        -0.061229         2.562137         0.018617
 C        -0.718159         1.222792        -0.050330
 C        -1.949730         0.849715         0.793150
 C        -2.062664        -0.432017        -0.090005
 C        -0.770377        -1.198519         0.290918
 C         0.176232         0.031694         0.307927
 O         1.343788         0.107242         0.616058
 C        -1.428501         0.523077        -1.227984
 O        -2.538032         1.173818        -1.881589
 H         0.808636         2.546661        -0.637131
 H        -0.684361         3.394154        -0.354804
 H         0.131373         2.928654         1.043711
 H        -1.920229         0.604737         1.948942
 H        -2.704591         1.654149         0.673639
 H        -3.075586        -0.795360        -0.188971
 H        -0.701845        -1.779328         1.165948
 H        -0.449965        -1.815612        -0.518419
 H        -0.861210        -0.029047        -2.039131
 H        -2.144762         2.091135        -2.037465
