19
Iteration:  3230charge 0 multiplicity 1
 C        -0.362516         2.678874         0.038193
 C        -0.764553         1.225744        -0.023008
 C        -2.262713         0.706109         0.204621
 C        -1.948319        -0.550546        -0.496815
 C        -0.921721        -1.187311         0.437649
 C        -0.055620         0.179573         0.813816
 O         0.834155         0.315254         1.619324
 C        -0.991963         0.418652        -1.412703
 O        -1.616822         1.151585        -2.385959
 H         0.715325         2.621762         0.329582
 H        -0.519533         3.261800        -0.859863
 H        -0.827645         3.377458         0.871447
 H        -2.420806         0.491093         1.263738
 H        -2.989835         1.451595        -0.235945
 H        -2.778105        -1.149961        -0.974538
 H        -1.302003        -1.697557         1.338236
 H        -0.171143        -1.790001        -0.119605
 H         0.007576        -0.108653        -1.874218
 H        -1.975122         0.439730        -2.875533
