19
Iteration:  4022charge 0 multiplicity 1
 C        -0.277328         2.694472        -0.145320
 C        -0.704753         1.225126        -0.184318
 C        -2.210459         0.799736         0.326054
 C        -1.848581        -0.490695        -0.452641
 C        -0.745263        -1.186391         0.308558
 C        -0.035811         0.086297         0.845568
 O         0.609291         0.214967         1.878058
 C        -1.041777         0.448547        -1.470198
 O        -1.790038         1.065443        -2.364545
 H         0.850936         2.648267         0.241582
 H        -0.154023         2.979820        -1.274575
 H        -0.864940         3.383916         0.584942
 H        -2.542259         0.947112         1.351547
 H        -2.876985         1.535426        -0.228622
 H        -2.812676        -0.996155        -0.763430
 H        -1.054341        -1.599074         1.316531
 H        -0.241340        -1.973886        -0.248234
 H        -0.330731        -0.179013        -1.958319
 H        -1.200070         1.847037        -2.624417
