19
Iteration:  3260charge 0 multiplicity 1
 C        -0.534670         2.602276         0.045748
 C        -0.898506         1.207186         0.066024
 C        -2.382823         0.806496         0.263918
 C        -1.901246        -0.519780        -0.482310
 C        -0.871489        -1.146723         0.541027
 C        -0.128641         0.169998         0.780809
 O         0.941589         0.234261         1.406130
 C        -0.937233         0.403323        -1.377484
 O        -1.399433         1.186275        -2.423758
 H         0.557595         2.594046         0.171159
 H        -0.697211         3.032872        -0.909705
 H        -0.942800         3.198241         0.886692
 H        -2.527119         0.644545         1.353731
 H        -3.114164         1.527861        -0.238732
 H        -2.691922        -1.278861        -0.947955
 H        -1.406318        -1.399909         1.535034
 H        -0.121772        -1.989452         0.272331
 H        -0.112566        -0.023568        -1.826641
 H        -2.223733         0.710624        -2.737082
