19
Iteration:  2555
 C        -0.222316         2.600794         0.027101
 C        -0.807868         1.209012        -0.185753
 C        -2.185775         0.790460         0.313684
 C        -1.967951        -0.478724        -0.420047
 C        -0.746326        -1.171856         0.342836
 C        -0.060590         0.155870         0.772469
 O         0.801312         0.316726         1.628937
 C        -1.060758         0.402488        -1.411639
 O        -1.777401         1.077482        -2.385529
 H         0.349779         2.944531        -0.834071
 H        -0.992112         3.338102         0.225417
 H         0.480687         2.480019         0.919151
 H        -2.257889         0.491694         1.495704
 H        -3.118021         1.464616         0.258603
 H        -2.670295        -1.147114        -0.856906
 H        -1.107170        -1.676419         1.226496
 H        -0.218525        -1.886989        -0.314932
 H        -0.175625         0.192615        -2.025446
 H        -2.530262         1.408817        -1.923208
