19
Iteration:  3514
 C        -0.335344         2.678760         0.102667
 C        -0.777967         1.203432        -0.088483
 C        -2.307448         0.775267         0.269917
 C        -1.866302        -0.443923        -0.490252
 C        -0.855671        -1.184462         0.408562
 C        -0.071846         0.161508         0.852056
 O         0.815982         0.318549         1.638234
 C        -1.013063         0.411549        -1.400923
 O        -1.689915         1.021295        -2.452546
 H         0.618878         2.750959        -0.365074
 H        -0.982629         3.258636        -0.483919
 H        -0.303429         3.020017         1.126204
 H        -2.629749         0.435234         1.300206
 H        -3.019386         1.419001        -0.317654
 H        -2.706621        -1.146383        -1.001494
 H        -1.338600        -1.691205         1.294823
 H        -0.237477        -1.907155        -0.226991
 H        -0.070494        -0.054937        -1.686089
 H        -1.093552         1.267481        -3.113703
