19
Iteration:  1167charge 0 multiplicity 1
 C        -0.010259         2.545044        -0.227216
 C        -0.733036         1.201733        -0.169861
 C        -1.981419         0.743671         0.713150
 C        -1.941322        -0.433481        -0.235430
 C        -0.623309        -1.134068         0.108103
 C         0.180717         0.088806         0.457828
 O         1.062761         0.142160         1.281153
 C        -1.410313         0.517465        -1.414167
 O        -2.527370         1.201064        -1.834052
 H        -0.173183         3.149742        -1.169137
 H        -0.263174         3.234468         0.614007
 H         1.097407         2.377178        -0.242125
 H        -1.827582         0.393499         1.785639
 H        -2.858957         1.396260         0.730207
 H        -2.824783        -1.069548        -0.472037
 H        -0.739238        -1.736050         0.984975
 H        -0.241885        -1.736518        -0.617415
 H        -0.822785         0.097891        -2.210862
 H        -2.177787         2.060490        -2.008117
