19
Iteration:  2207charge 0 multiplicity 1
 C        -0.327091         2.668336         0.130813
 C        -0.834010         1.222195         0.135377
 C        -2.390335         0.893375         0.344642
 C        -1.979472        -0.490605        -0.420796
 C        -0.847910        -1.254104         0.403192
 C         0.039902         0.114332         0.749588
 O         1.199437         0.227512         1.149242
 C        -1.129612         0.433595        -1.337037
 O        -1.878155         1.072735        -2.275265
 H        -0.247282         2.990629        -0.905631
 H        -1.074829         3.415374         0.564606
 H         0.705397         2.757110         0.616917
 H        -2.880517         0.908155         1.305430
 H        -2.993893         1.527502        -0.341680
 H        -2.599352        -1.350639        -0.735419
 H        -1.231830        -1.639032         1.366839
 H        -0.229786        -2.008230        -0.119515
 H        -0.268959        -0.065455        -1.664428
 H        -1.170302         1.623591        -2.810157
