19
Iteration:  4017
 C        -0.229588         2.710873        -0.165315
 C        -0.749828         1.207398        -0.155253
 C        -2.181083         0.798356         0.320227
 C        -1.836501        -0.486682        -0.447601
 C        -0.790916        -1.195527         0.313946
 C        -0.025194         0.092355         0.860418
 O         0.597700         0.223005         1.880729
 C        -1.027843         0.432469        -1.438445
 O        -1.805478         1.081020        -2.389542
 H         0.733736         2.808315         0.204223
 H        -0.229542         3.144495        -1.140914
 H        -0.825837         3.309143         0.464899
 H        -2.322356         0.797164         1.472751
 H        -2.863691         1.470827        -0.258424
 H        -2.663577        -1.024532        -0.865170
 H        -1.032236        -1.746275         1.208114
 H        -0.253823        -1.926092        -0.324978
 H        -0.268893        -0.264334        -1.939586
 H        -1.345424         1.862572        -2.787775
