19
Iteration:  4300
 C        -0.178053         2.616597        -0.086284
 C        -0.719643         1.203509        -0.066124
 C        -2.192564         0.817060         0.259226
 C        -1.886586        -0.491539        -0.498297
 C        -0.739225        -1.096617         0.318817
 C        -0.083812         0.127088         0.792910
 O         0.594754         0.267661         1.838488
 C        -1.059234         0.338859        -1.442476
 O        -1.844479         1.084432        -2.350875
 H         0.890735         2.722437        -0.019922
 H        -0.489725         3.248151        -0.931643
 H        -0.422616         3.218475         0.881448
 H        -2.377566         0.807731         1.371639
 H        -2.754959         1.508025        -0.266715
 H        -2.691821        -1.150091        -0.731105
 H        -1.075830        -1.746571         1.151196
 H        -0.006810        -1.741423        -0.293598
 H        -0.197212        -0.122054        -2.062176
 H        -1.063527         1.451317        -2.887640
