19
Iteration:  2515charge 0 multiplicity 1
 C        -0.299321         2.621918         0.037599
 C        -0.871210         1.229466        -0.010809
 C        -2.328544         0.741940         0.305406
 C        -1.882067        -0.554361        -0.457333
 C        -0.830055        -1.188839         0.500521
 C        -0.054499         0.146341         0.790741
 O         0.969793         0.248846         1.422826
 C        -1.048519         0.483871        -1.404579
 O        -1.728473         1.129019        -2.432148
 H         0.783352         2.775646        -0.219629
 H        -0.849649         3.402475        -0.489861
 H        -0.213708         2.886319         1.086845
 H        -2.579865         0.839614         1.342378
 H        -3.158895         1.321059        -0.160611
 H        -2.768866        -1.132737        -0.697716
 H        -1.032528        -1.697341         1.476727
 H        -0.195050        -2.011855         0.002332
 H        -0.199786        -0.064050        -1.864959
 H        -2.345889         1.880337        -2.140705
