19
Iteration:  2073
 C        -0.218609         2.523748         0.004743
 C        -0.825294         1.180211        -0.041561
 C        -2.222866         0.710467         0.426240
 C        -1.933434        -0.482835        -0.480204
 C        -0.756318        -1.111230         0.359889
 C         0.086883         0.206925         0.693396
 O         1.019238         0.221586         1.525468
 C        -1.127393         0.462439        -1.442195
 O        -2.033880         1.237184        -2.289579
 H         0.799570         2.322858        -0.432950
 H        -0.809093         3.384306        -0.539116
 H        -0.016254         2.753539         1.119800
 H        -2.156885         0.543400         1.473715
 H        -3.043991         1.335503         0.205207
 H        -2.710501        -1.198758        -0.738789
 H        -1.161463        -1.549047         1.334147
 H        -0.192213        -1.929327        -0.256873
 H        -0.230048         0.320784        -2.015247
 H        -2.756631         0.820085        -2.832767
