19
Iteration:   345
 C         0.150957         2.463163        -0.349406
 C        -0.736682         1.229930        -0.110187
 C        -1.777110         0.681647         0.982665
 C        -1.935386        -0.417714        -0.068239
 C        -0.619136        -1.203691        -0.130811
 C         0.215153        -0.020200         0.145775
 O         1.309381         0.123269         0.649950
 C        -1.722200         0.625943        -1.185167
 O        -2.865675         1.366664        -1.334388
 H        -0.158639         3.399242         0.133765
 H         1.116197         2.227177         0.295429
 H         0.364857         2.739844        -1.338866
 H        -1.259755         0.380200         2.010012
 H        -2.730496         1.287752         1.194549
 H        -2.862138        -1.078925        -0.035248
 H        -0.540924        -1.968383         0.695669
 H        -0.365555        -1.619276        -1.068628
 H        -1.337946         0.235657        -2.091544
 H        -2.728759         2.262185        -0.934334
