19
Iteration:  4907charge 0 multiplicity 1
 C        -0.214750         2.571295         0.100239
 C        -0.769494         1.189123        -0.048267
 C        -2.283815         0.771568         0.317435
 C        -1.879251        -0.470431        -0.503304
 C        -0.875493        -1.093348         0.371438
 C        -0.130986         0.149853         0.759858
 O         0.870149         0.363483         1.583034
 C        -1.044785         0.372624        -1.370776
 O        -1.808648         1.024751        -2.424472
 H        -0.908902         3.099267         0.806733
 H         0.778482         2.485922         0.662988
 H        -0.085988         3.241333        -0.781419
 H        -2.421641         0.659761         1.300145
 H        -3.063961         1.327197        -0.184027
 H        -2.729856        -1.110185        -0.974928
 H        -1.381689        -1.626803         1.247230
 H        -0.104291        -1.824501        -0.007876
 H        -0.063971         0.047100        -1.880424
 H        -1.102735         1.612473        -2.910731
