19
Iteration:  1772
 C        -0.018967         2.554503        -0.031295
 C        -0.650941         1.204121        -0.011594
 C        -2.073260         0.755090         0.524108
 C        -1.958708        -0.484657        -0.413742
 C        -0.629312        -1.178789         0.179303
 C         0.057761         0.098828         0.667506
 O         0.942616         0.258061         1.545625
 C        -1.339797         0.476525        -1.427965
 O        -2.334766         1.205132        -2.178607
 H        -0.161795         2.920559        -1.114238
 H        -0.382407         3.412186         0.557873
 H         1.043501         2.587002         0.167603
 H        -2.132513         0.703161         1.549441
 H        -2.820207         1.378002         0.111766
 H        -2.779926        -1.198308        -0.604016
 H        -0.791760        -2.071256         0.877781
 H         0.082520        -1.622857        -0.614626
 H        -0.732525        -0.033207        -2.226463
 H        -2.183553         1.421721        -3.064460
