19
Iteration:   101charge 0 multiplicity 1
 C        -0.147295         2.537993        -0.290459
 C        -0.682615         1.125883        -0.151593
 C        -1.676512         0.482861         1.064741
 C        -1.990719        -0.499927        -0.041404
 C        -0.634662        -1.284582        -0.153665
 C         0.259953        -0.023953         0.105228
 O         1.468404         0.073963         0.442693
 C        -1.767953         0.696194        -1.056335
 O        -2.774970         1.669062        -1.278905
 H        -0.385112         3.178053        -1.160453
 H        -0.256327         3.106039         0.551946
 H         0.967008         2.442789        -0.407513
 H        -1.277782         0.144766         2.047237
 H        -2.496120         1.231723         1.190895
 H        -2.900748        -1.141244        -0.139592
 H        -0.447610        -1.939565         0.593569
 H        -0.425858        -1.657181        -1.183962
 H        -1.438124         0.456249        -2.058101
 H        -3.239791         1.894504        -0.450563
