19
Iteration:  2282
 C        -0.174810         2.503965        -0.135114
 C        -0.789338         1.142394        -0.066573
 C        -2.196350         0.876381         0.370433
 C        -1.862183        -0.493288        -0.413765
 C        -0.651892        -1.170405         0.287902
 C         0.039368         0.058979         0.718653
 O         0.799372         0.278943         1.630910
 C        -1.115718         0.524880        -1.372758
 O        -2.095209         1.135085        -2.212770
 H        -1.032031         3.147072        -0.319615
 H         0.446883         2.788563         0.775093
 H         0.509001         2.474100        -1.043779
 H        -2.432278         0.900803         1.367516
 H        -2.921707         1.466328        -0.122647
 H        -2.407655        -1.230354        -0.948668
 H        -0.969138        -1.812686         1.171876
 H         0.070708        -1.723877        -0.430816
 H        -0.267287         0.099778        -2.003855
 H        -1.743135         1.961714        -2.453619
