19
Iteration:  4710
 C        -0.448022         2.691845         0.156307
 C        -0.864485         1.226745         0.078909
 C        -2.371331         0.864878         0.166731
 C        -1.991943        -0.469489        -0.450453
 C        -1.040805        -1.131765         0.511958
 C        -0.115505         0.122813         0.819116
 O         1.011332         0.294450         1.248820
 C        -0.941212         0.324436        -1.244774
 O        -1.448050         0.940280        -2.443457
 H         0.495266         3.020073        -0.264752
 H        -1.222985         3.290457        -0.250184
 H        -0.452808         2.894222         1.158189
 H        -2.863915         0.888753         1.314690
 H        -2.855577         1.533817        -0.528974
 H        -2.571413        -1.090980        -1.161486
 H        -1.585798        -1.319161         1.464491
 H        -0.418819        -1.974674         0.282402
 H         0.030092        -0.139963        -1.383844
 H        -0.755029         1.591941        -2.645968
