19
Iteration:  2633charge 0 multiplicity 1
 C        -0.262672         2.638346        -0.031100
 C        -0.775272         1.205359        -0.016244
 C        -2.234721         0.742239         0.250652
 C        -1.910708        -0.625524        -0.442750
 C        -0.826965        -1.163228         0.458509
 C        -0.050820         0.123324         0.706594
 O         0.805396         0.315067         1.553362
 C        -1.049628         0.403076        -1.366249
 O        -1.680841         1.196417        -2.351001
 H        -0.849287         3.255975        -0.767409
 H        -0.432861         3.110982         0.934124
 H         0.765144         2.817384        -0.437515
 H        -2.561176         0.914614         1.418610
 H        -3.133529         1.219764        -0.341020
 H        -2.690216        -1.205662        -0.868759
 H        -1.132772        -1.616831         1.400611
 H        -0.279621        -2.041713         0.045392
 H        -0.289550        -0.129304        -1.998202
 H        -2.527653         1.621038        -2.002502
