19
Iteration:  1263charge 0 multiplicity 1
 C        -0.218561         2.548311         0.026836
 C        -0.856328         1.231306        -0.001100
 C        -2.133578         0.797151         0.686023
 C        -1.933137        -0.442942        -0.337538
 C        -0.723190        -1.202081         0.310963
 C         0.152354         0.044458         0.552169
 O         1.285931         0.176674         0.959535
 C        -1.341004         0.491906        -1.315418
 O        -2.278594         1.198849        -2.111529
 H        -0.604461         3.389896         0.684594
 H         0.845583         2.323095         0.224877
 H        -0.334378         2.986679        -0.941009
 H        -2.134694         0.667468         1.809598
 H        -2.971989         1.470948         0.471369
 H        -2.750657        -1.019301        -0.688381
 H        -0.847289        -1.646543         1.360822
 H        -0.319758        -2.144455        -0.366813
 H        -0.423804         0.188514        -1.930200
 H        -2.412707         2.166017        -1.936555
