19
Iteration:  4947
 C        -0.465335         2.713714         0.097948
 C        -0.863153         1.299425        -0.000930
 C        -2.357980         0.892143         0.328688
 C        -1.964606        -0.469521        -0.431361
 C        -0.888614        -1.151791         0.491159
 C        -0.086976         0.119109         0.807900
 O         1.064522         0.091945         1.341128
 C        -0.984140         0.447894        -1.292728
 O        -1.586613         1.004384        -2.487293
 H        -1.411545         3.241071         0.364610
 H         0.303656         2.936273         0.838214
 H        -0.263386         3.061893        -0.969059
 H        -2.881475         0.686124         1.438191
 H        -3.057497         1.439308        -0.283865
 H        -2.658165        -1.125954        -0.765225
 H        -1.447737        -1.479893         1.372981
 H        -0.272694        -1.875691        -0.031007
 H        -0.154049        -0.185168        -1.472792
 H        -0.939276         1.553881        -2.834564
