19
Iteration:   531
 C        -0.182404         2.713045         0.123472
 C        -0.773463         1.195194         0.120541
 C        -1.997649         0.776877         0.900857
 C        -2.001279        -0.431442        -0.059989
 C        -0.775050        -1.183970         0.416282
 C         0.242798         0.030387         0.224199
 O         1.424088        -0.086494         0.029975
 C        -1.454562         0.537080        -1.128124
 O        -2.444748         1.394949        -1.791357
 H        -0.828310         3.306763         0.807912
 H         0.878425         2.721701         0.558748
 H        -0.142605         3.250283        -0.778136
 H        -1.887727         0.455446         1.946073
 H        -2.773338         1.525749         0.730468
 H        -2.850529        -1.110555        -0.211014
 H        -0.847785        -1.484431         1.515556
 H        -0.411697        -1.966880        -0.157357
 H        -0.911270        -0.062010        -1.914379
 H        -3.067549         0.796290        -2.183502
