19
Iteration:  4257
 C        -0.216839         2.582584        -0.028863
 C        -0.736026         1.233910        -0.043057
 C        -2.156522         0.823167         0.300864
 C        -1.860476        -0.467507        -0.533308
 C        -0.853149        -1.112912         0.397102
 C        -0.051166         0.121239         0.764954
 O         0.641274         0.264134         1.771706
 C        -1.009857         0.430630        -1.427219
 O        -1.816580         1.028315        -2.419555
 H         0.877554         2.617247        -0.064135
 H        -0.552477         3.080038        -0.978520
 H        -0.412331         3.278494         0.927518
 H        -2.405906         0.705037         1.283811
 H        -2.964818         1.241247        -0.165835
 H        -2.491891        -1.188924        -0.967596
 H        -1.231549        -1.555114         1.334869
 H        -0.268022        -1.950742        -0.083297
 H        -0.062357        -0.023237        -1.838345
 H        -1.561915         1.792951        -2.906340
