19
Iteration:  4893
 C        -0.164738         2.510485         0.109455
 C        -0.820137         1.221060        -0.089022
 C        -2.271255         0.788791         0.229834
 C        -1.902976        -0.533676        -0.529048
 C        -0.788237        -1.161168         0.476198
 C        -0.078195         0.153255         0.825028
 O         0.802522         0.379603         1.641147
 C        -1.007518         0.434906        -1.473206
 O        -1.872063         1.088139        -2.384103
 H        -0.607891         3.217945         0.890682
 H         0.965295         2.400807         0.328066
 H        -0.150470         3.079423        -0.938681
 H        -2.722377         0.703418         1.298359
 H        -2.898972         1.460326        -0.290118
 H        -2.540939        -1.235331        -0.883206
 H        -1.134187        -1.798611         1.356131
 H        -0.197122        -1.861469        -0.161810
 H        -0.222518        -0.115870        -1.998628
 H        -1.467618         1.716756        -2.964233
