19
Iteration:  3458
 C        -0.227025         2.622432        -0.083777
 C        -0.661073         1.122924        -0.089373
 C        -2.276968         0.738037         0.266675
 C        -1.835596        -0.614687        -0.556117
 C        -0.782570        -1.167148         0.361676
 C        -0.090019         0.194891         0.839937
 O         0.623470         0.384753         1.780660
 C        -1.002592         0.378852        -1.409801
 O        -1.732668         1.238275        -2.345348
 H         0.827938         2.597941        -0.182503
 H        -0.604475         3.142304        -0.862861
 H        -0.415283         3.106414         0.903320
 H        -2.848226         0.489867         1.189305
 H        -2.962857         1.439430        -0.374949
 H        -2.610885        -1.457961        -1.056570
 H        -0.918154        -1.877082         1.244114
 H         0.076957        -1.669598        -0.238816
 H        -0.074530         0.125887        -1.907406
 H        -2.691172         0.853912        -2.285010
