19
Iteration:  1255
 C        -0.186143         2.627160        -0.061745
 C        -0.807480         1.206753        -0.036981
 C        -2.111836         0.745349         0.707375
 C        -1.903418        -0.481826        -0.278508
 C        -0.757100        -1.254580         0.269129
 C         0.141313         0.054706         0.550429
 O         1.248404         0.182235         1.039811
 C        -1.311670         0.503026        -1.327154
 O        -2.301559         1.257854        -2.092236
 H        -0.698187         3.321979         0.597361
 H         0.888159         2.589383         0.219662
 H        -0.174176         2.927388        -1.164383
 H        -2.114281         0.606420         1.823619
 H        -2.986307         1.340996         0.400611
 H        -2.777080        -1.075703        -0.671778
 H        -1.069029        -1.724378         1.188896
 H        -0.219612        -1.945098        -0.436750
 H        -0.619693         0.072872        -2.042436
 H        -2.619244         2.048178        -1.622650
