19
Iteration:  3915
 C        -0.369026         2.713664         0.085840
 C        -0.820849         1.259234         0.034812
 C        -2.397955         0.784877         0.276346
 C        -1.933255        -0.471209        -0.544252
 C        -0.976930        -1.125215         0.546760
 C        -0.103415         0.091090         0.747850
 O         0.898649         0.261684         1.417514
 C        -0.891374         0.394654        -1.240729
 O        -1.547934         0.977107        -2.505810
 H         0.344569         3.001106        -0.682409
 H        -1.180398         3.368668         0.099723
 H         0.148875         2.912831         1.072543
 H        -2.739975         0.623693         1.331756
 H        -3.033895         1.332746        -0.407754
 H        -2.698677        -1.096813        -1.179742
 H        -1.609670        -1.374819         1.471635
 H        -0.424188        -2.082856         0.345823
 H         0.080970        -0.075275        -1.631168
 H        -1.056876         1.810615        -2.560798
