19
Iteration:   276charge 0 multiplicity 1
 C        -0.292863         2.694585        -0.020003
 C        -0.624876         1.162225        -0.011477
 C        -1.792996         0.753355         1.005416
 C        -2.049266        -0.451186         0.014961
 C        -0.658424        -1.265316         0.209624
 C         0.243527        -0.079684         0.078281
 O         1.461887        -0.092748         0.122119
 C        -1.616911         0.586415        -1.096790
 O        -2.583846         1.541439        -1.490514
 H        -0.034388         3.025620        -1.038445
 H        -1.127918         3.216393         0.273376
 H         0.586480         3.075348         0.568992
 H        -1.532334         0.386144         1.978791
 H        -2.659744         1.421584         1.039088
 H        -3.109475        -0.860642         0.014316
 H        -0.491774        -1.785290         1.114525
 H        -0.523028        -2.019530        -0.626512
 H        -1.089789         0.263856        -1.983293
 H        -3.037514         1.304328        -2.292769
