19
Iteration:  4704charge 0 multiplicity 1
 C        -0.499949         2.694753         0.137716
 C        -0.842125         1.218083         0.070814
 C        -2.348392         0.863862         0.198465
 C        -2.041620        -0.447784        -0.488018
 C        -1.030659        -1.096335         0.487557
 C        -0.076531         0.119542         0.809553
 O         1.014579         0.278982         1.269542
 C        -0.952293         0.362797        -1.198613
 O        -1.410493         0.911744        -2.447461
 H         0.443480         2.857019        -0.452207
 H        -1.408433         3.281409        -0.208910
 H        -0.426949         2.967059         1.263886
 H        -2.726298         0.831935         1.151530
 H        -3.078484         1.548969        -0.317511
 H        -2.792685        -1.090405        -1.021063
 H        -1.522355        -1.361950         1.434119
 H        -0.521505        -2.051765         0.225570
 H         0.020283        -0.142010        -1.456097
 H        -0.618090         1.534418        -2.657973
