19
Iteration:  3037charge 0 multiplicity 1
 C        -0.413571         2.605114         0.190778
 C        -0.966653         1.248985         0.127981
 C        -2.474321         0.804050         0.156646
 C        -1.956176        -0.493987        -0.440809
 C        -0.941533        -1.025168         0.516675
 C        -0.108770         0.240048         0.842152
 O         1.009749         0.272129         1.243199
 C        -0.945679         0.274570        -1.336205
 O        -1.349003         1.009053        -2.431648
 H         0.520067         2.579805        -0.366411
 H        -1.035478         3.347428        -0.307631
 H        -0.237518         2.989937         1.137808
 H        -3.174138         0.699782         0.945040
 H        -2.901520         1.646291        -0.398031
 H        -2.631342        -1.276667        -0.776912
 H        -1.413389        -1.480026         1.404693
 H        -0.298891        -1.799088         0.036050
 H         0.089643        -0.059040        -1.713009
 H        -2.267485         1.020937        -2.306672
