19
Iteration:  1545
 C        -0.301870         2.573377         0.023765
 C        -0.787306         1.193207         0.007306
 C        -2.218026         0.719130         0.572534
 C        -1.989198        -0.552278        -0.384388
 C        -0.726179        -1.123452         0.345079
 C         0.078603         0.063709         0.537583
 O         1.185167         0.166508         1.077648
 C        -1.268327         0.441464        -1.309378
 O        -2.013091         1.385079        -2.064264
 H        -1.096372         3.434632         0.035542
 H         0.362842         3.008774         0.804757
 H         0.227131         2.674023        -0.908132
 H        -2.147902         0.566428         1.716435
 H        -2.990114         1.446491         0.256527
 H        -2.694102        -1.292767        -0.748811
 H        -1.043974        -1.472596         1.305048
 H        -0.183386        -1.789682        -0.277364
 H        -0.475784         0.033706        -1.941028
 H        -2.634500         0.801185        -2.637421
