19
Iteration:   879
 C        -0.084872         2.483879        -0.277364
 C        -0.670596         1.176359        -0.114572
 C        -1.922868         0.694031         0.750953
 C        -2.035052        -0.468927        -0.191935
 C        -0.650429        -1.184263         0.234566
 C         0.213655         0.060182         0.391019
 O         1.286852         0.100377         0.970134
 C        -1.537054         0.520345        -1.245118
 O        -2.602112         1.453686        -1.718233
 H         0.042417         2.579329        -1.389683
 H        -0.701456         3.341686         0.005709
 H         0.910901         2.516833         0.111831
 H        -1.770971         0.383720         1.863832
 H        -2.600870         1.585466         0.633523
 H        -2.921102        -1.076394        -0.272877
 H        -0.495474        -1.728709         1.140504
 H        -0.279313        -1.747768        -0.568142
 H        -0.932360         0.153176        -2.119300
 H        -2.449229         1.763361        -2.667044
