19
Iteration:  2025charge 0 multiplicity 1
 C        -0.225897         2.573139        -0.210496
 C        -0.715757         1.090820        -0.171207
 C        -2.058892         0.786745         0.487903
 C        -1.911033        -0.515152        -0.445132
 C        -0.695163        -1.211514         0.152693
 C         0.117377         0.100668         0.691937
 O         0.765675         0.324941         1.697086
 C        -1.139881         0.463797        -1.408693
 O        -2.072344         1.309089        -2.035004
 H         0.937147         2.448458         0.033301
 H        -0.376500         2.878644        -1.231884
 H        -0.792019         3.170313         0.505064
 H        -2.072179         0.552714         1.569221
 H        -2.934455         1.412871         0.177551
 H        -2.733145        -1.212915        -0.709207
 H        -0.893933        -1.963367         0.977099
 H        -0.114779        -1.763868        -0.641719
 H        -0.657225        -0.088108        -2.235790
 H        -2.387524         0.984415        -2.847516
