19
Iteration:  3415
 C        -0.240281         2.672088        -0.094336
 C        -0.782677         1.207386        -0.079144
 C        -2.325844         0.604219         0.313830
 C        -1.833328        -0.586199        -0.540641
 C        -0.749159        -1.133928         0.448299
 C        -0.076487         0.196496         0.801133
 O         0.633299         0.298160         1.728781
 C        -0.961865         0.460181        -1.430027
 O        -1.687097         1.141183        -2.414442
 H         0.818971         2.621858        -0.191615
 H        -0.699517         3.190658        -0.851161
 H        -0.582073         3.106414         0.866009
 H        -2.465341         0.557348         1.417626
 H        -2.876319         1.545126        -0.095887
 H        -2.486509        -1.373425        -1.144791
 H        -1.246626        -1.658054         1.341784
 H        -0.032211        -1.883689        -0.083762
 H        -0.130882        -0.004958        -1.868194
 H        -2.281842         1.838373        -2.112320
