19
Iteration:   400
 C        -0.187609         2.581424        -0.255788
 C        -0.643243         1.142668        -0.152322
 C        -1.723208         0.789251         0.911132
 C        -1.996970        -0.482624        -0.041514
 C        -0.680810        -1.217467         0.038012
 C         0.284030        -0.035703         0.156452
 O         1.401245        -0.025272         0.618591
 C        -1.652504         0.578337        -1.167566
 O        -2.781336         1.453086        -1.428746
 H         0.799184         2.627794         0.210295
 H         0.007112         3.125719        -1.233671
 H        -0.773295         3.220373         0.314578
 H        -1.194886         0.559594         1.925778
 H        -2.562890         1.539013         0.966762
 H        -2.938779        -1.040994        -0.185575
 H        -0.391103        -1.895308         0.895665
 H        -0.496897        -1.814769        -0.814182
 H        -1.186482         0.235224        -2.056098
 H        -2.465876         2.332893        -1.595395
