19
Iteration:   127
 C        -0.197194         2.572832        -0.070965
 C        -0.675897         1.141730         0.001662
 C        -1.727261         0.606393         1.058983
 C        -2.039666        -0.463623        -0.046162
 C        -0.664792        -1.224935        -0.084164
 C         0.289090        -0.005380         0.070342
 O         1.485167        -0.011827         0.256369
 C        -1.711259         0.602321        -1.115577
 O        -2.697907         1.612160        -1.348254
 H        -0.954960         3.309554        -0.435068
 H         0.497317         3.144731         0.685237
 H         0.388132         2.535586        -1.016503
 H        -1.235369         0.250055         2.016650
 H        -2.462814         1.404308         1.283509
 H        -2.931575        -1.110848        -0.164619
 H        -0.423977        -1.786345         0.905825
 H        -0.359292        -1.797338        -0.965879
 H        -1.284275         0.368717        -2.166928
 H        -3.584184         1.340639        -1.123334
