19
Iteration:  1868charge 0 multiplicity 1
 C        -0.411415         2.634284         0.095891
 C        -0.915870         1.211525         0.122198
 C        -2.320352         0.776574         0.449814
 C        -1.983671        -0.537051        -0.251891
 C        -0.814106        -1.206142         0.459641
 C        -0.050217         0.165070         0.571409
 O         1.164401         0.149493         0.858160
 C        -1.136842         0.458048        -1.187836
 O        -1.699017         1.234306        -2.203163
 H        -0.940512         3.320876         0.657523
 H         0.629990         2.873824         0.399261
 H        -0.414351         3.185544        -0.859676
 H        -2.659736         0.931545         1.524081
 H        -2.996283         1.314261        -0.226346
 H        -2.862072        -0.991658        -0.740001
 H        -1.157669        -1.504470         1.398242
 H        -0.248640        -1.983653         0.085542
 H        -0.261946        -0.028873        -1.586623
 H        -1.413944         0.726043        -2.919177
