19
Iteration:  3256charge 0 multiplicity 1
 C        -0.515067         2.586984         0.043351
 C        -0.844371         1.189572         0.066313
 C        -2.406118         0.842110         0.301337
 C        -1.876466        -0.530608        -0.470637
 C        -0.871628        -1.183251         0.512414
 C        -0.133473         0.135247         0.789268
 O         0.939587         0.265169         1.444747
 C        -0.968463         0.405629        -1.401181
 O        -1.434771         1.203494        -2.461828
 H         0.556259         2.639813         0.265469
 H        -0.754831         3.108377        -0.938388
 H        -0.952657         3.205012         0.763231
 H        -2.586789         0.634701         1.350738
 H        -3.093710         1.429270        -0.218844
 H        -2.531322        -1.138272        -0.980570
 H        -1.443095        -1.322108         1.397982
 H        -0.163605        -1.935347         0.342929
 H        -0.018211        -0.111116        -1.737452
 H        -2.164331         0.660772        -2.732283
