19
Iteration:  4933
 C        -0.426364         2.777399         0.095182
 C        -0.889472         1.245385         0.046151
 C        -2.289833         0.798771         0.342632
 C        -1.936176        -0.442755        -0.398139
 C        -0.943241        -1.134666         0.464291
 C        -0.035238         0.092182         0.735714
 O         0.939599         0.176220         1.396882
 C        -0.995013         0.384993        -1.354352
 O        -1.618542         0.980393        -2.471381
 H        -1.105137         3.456759         0.541175
 H         0.432933         2.723673         0.705476
 H        -0.035319         3.192139        -0.781516
 H        -2.420017         0.856668         1.480262
 H        -3.062427         1.427763        -0.176589
 H        -2.762518        -0.992496        -0.996341
 H        -1.190455        -1.654311         1.346646
 H        -0.372475        -1.879518        -0.088815
 H         0.042778         0.102215        -1.737028
 H        -0.957355         1.607122        -2.948810
