19
Iteration:  3217charge 0 multiplicity 1
 C        -0.267694         2.653541         0.043101
 C        -0.798739         1.229005        -0.101777
 C        -2.282969         0.837232         0.286734
 C        -1.833454        -0.544252        -0.555885
 C        -0.780264        -1.126307         0.365773
 C        -0.146630         0.195664         0.785222
 O         0.734248         0.278366         1.656121
 C        -0.936906         0.321958        -1.385054
 O        -1.728434         1.118582        -2.306362
 H         0.824704         2.717784         0.203649
 H        -0.456133         3.178714        -0.882752
 H        -0.824887         3.066837         0.929114
 H        -2.608549         0.792519         1.345638
 H        -3.103928         1.356344        -0.291074
 H        -2.608823        -1.235596        -1.062747
 H        -1.228648        -1.613687         1.289884
 H        -0.038090        -1.895322        -0.017085
 H         0.006930        -0.179757        -1.835823
 H        -1.973459         0.677939        -3.189764
