19
Iteration:  2393charge 0 multiplicity 1
 C        -0.358838         2.562056         0.120762
 C        -0.891049         1.242225         0.116845
 C        -2.328707         0.830114         0.300384
 C        -1.874140        -0.496985        -0.413326
 C        -0.875135        -1.110168         0.483405
 C        -0.054783         0.143099         0.717597
 O         1.030233         0.230988         1.250831
 C        -1.008410         0.478323        -1.344841
 O        -1.728138         1.112999        -2.385901
 H         0.054082         2.798165         1.150423
 H         0.573974         2.569189        -0.465016
 H        -1.004921         3.465898        -0.109163
 H        -2.722413         0.694700         1.304050
 H        -2.991667         1.523337        -0.322053
 H        -2.485532        -1.286769        -0.902104
 H        -1.271583        -1.626505         1.408194
 H        -0.145800        -1.931271         0.036852
 H        -0.053002        -0.028106        -1.800041
 H        -2.563002         0.552771        -2.583202
