19
Iteration:    43
 C         0.029489         2.603501        -0.086407
 C        -0.629921         1.201937        -0.075161
 C        -1.586653         0.679475         0.969688
 C        -1.950050        -0.424479        -0.095558
 C        -0.666195        -1.212973        -0.194451
 C         0.272806        -0.040822         0.027565
 O         1.455952        -0.047011         0.406946
 C        -1.823678         0.667560        -1.131858
 O        -2.980320         1.470013        -1.119778
 H         1.067635         2.503801        -0.302012
 H        -0.445709         3.172818        -0.935813
 H        -0.250475         3.058116         0.840371
 H        -1.180748         0.355123         1.905706
 H        -2.394478         1.331501         1.218425
 H        -2.870520        -0.954160        -0.208563
 H        -0.364071        -2.099776         0.503256
 H        -0.512823        -1.701875        -1.156656
 H        -1.454400         0.421587        -2.099619
 H        -3.440867         1.468983        -1.993023
