19
Iteration:  1837
 C        -0.334266         2.651712         0.012732
 C        -0.795649         1.187764         0.046196
 C        -2.286480         0.692034         0.498909
 C        -2.008649        -0.480997        -0.380700
 C        -0.918668        -1.184792         0.505553
 C         0.113090         0.116984         0.714334
 O         1.242803         0.205906         1.079961
 C        -1.173789         0.394247        -1.407493
 O        -1.903839         1.314237        -2.193410
 H        -1.253785         3.341209         0.046110
 H         0.334646         2.846596         0.875453
 H         0.053922         2.851719        -0.991281
 H        -2.390789         0.492688         1.503640
 H        -3.085095         1.328225         0.242301
 H        -2.892316        -1.057019        -0.735785
 H        -1.466546        -1.628898         1.362927
 H        -0.369359        -1.971451        -0.020935
 H        -0.365398        -0.137065        -1.852350
 H        -1.601348         1.106960        -3.159135
