19
Iteration:   455charge 0 multiplicity 1
 C        -0.161400         2.547222         0.024819
 C        -0.718178         1.157619         0.087617
 C        -1.944805         0.737992         0.996986
 C        -1.960121        -0.397023        -0.003089
 C        -0.724446        -1.187161         0.301588
 C         0.240161         0.033200         0.237971
 O         1.434618        -0.019750         0.090350
 C        -1.586765         0.604852        -1.095808
 O        -2.547913         1.413621        -1.745380
 H         0.227814         2.798877        -0.961213
 H        -1.004895         3.262754         0.287099
 H         0.597342         2.701483         0.692761
 H        -1.881547         0.513115         2.129160
 H        -2.883524         1.327357         0.824634
 H        -2.952997        -0.793821        -0.219533
 H        -0.636004        -1.605457         1.359816
 H        -0.456185        -1.939388        -0.373177
 H        -0.929920         0.264835        -1.858971
 H        -2.477491         1.220622        -2.692499
