19
Iteration:  4723charge 0 multiplicity 1
 C        -0.372933         2.678481         0.210134
 C        -0.890353         1.240178         0.062650
 C        -2.398418         0.867024         0.126557
 C        -1.882526        -0.518500        -0.495757
 C        -1.009527        -1.133226         0.658802
 C        -0.150021         0.185576         0.832075
 O         0.961034         0.276396         1.222743
 C        -0.881499         0.316173        -1.339345
 O        -1.517541         0.979574        -2.407072
 H         0.729287         2.704227        -0.081167
 H        -1.002341         3.366053        -0.392309
 H        -0.507270         3.008419         1.241737
 H        -3.063526         0.971304         1.088322
 H        -3.059887         1.396820        -0.648704
 H        -2.699517        -1.233048        -0.918853
 H        -1.546587        -1.529200         1.501336
 H        -0.433933        -1.960023         0.292817
 H        -0.007327        -0.181597        -1.716273
 H        -0.948971         1.739989        -2.752323
