19
Iteration:  3846charge 0 multiplicity 1
 C        -0.354979         2.651874         0.111314
 C        -0.922811         1.221742         0.059855
 C        -2.349869         0.809823         0.223278
 C        -1.882966        -0.544734        -0.501725
 C        -1.003286        -1.120548         0.585402
 C        -0.194685         0.137098         0.810986
 O         0.899232         0.269757         1.303968
 C        -0.901881         0.332913        -1.331544
 O        -1.517075         1.104378        -2.387443
 H         0.176696         2.843641        -0.909426
 H        -1.235275         3.458397         0.171900
 H         0.314087         2.863753         0.917022
 H        -2.729631         0.665393         1.147034
 H        -2.869064         1.477067        -0.477072
 H        -2.567788        -1.076777        -1.090990
 H        -1.324922        -1.273911         1.641110
 H        -0.276005        -1.931148         0.481734
 H         0.113748        -0.117600        -1.523309
 H        -0.868021         1.256509        -3.181924
