19
Iteration:  3674charge 0 multiplicity 1
 C        -0.257389         2.624403         0.042251
 C        -0.749612         1.231391        -0.027611
 C        -2.354004         0.741031         0.229784
 C        -1.821569        -0.573446        -0.444246
 C        -0.895705        -1.217708         0.496505
 C        -0.155199         0.151173         0.784565
 O         0.825088         0.313183         1.569207
 C        -0.937822         0.430386        -1.450147
 O        -1.756491         1.175254        -2.400750
 H         0.828532         2.616106         0.245046
 H        -0.521320         3.112486        -0.894434
 H        -0.746089         3.302820         0.875349
 H        -2.686983         0.672075         1.352296
 H        -2.932576         1.518240        -0.394793
 H        -2.500810        -1.318409        -0.842661
 H        -1.448348        -1.436330         1.425316
 H        -0.147630        -1.982293         0.420014
 H        -0.126844        -0.018499        -1.969455
 H        -1.240126         1.087559        -3.149409
