19
Iteration:   887
 C        -0.139113         2.484371        -0.388775
 C        -0.654354         1.079753        -0.096604
 C        -1.929926         0.737301         0.748431
 C        -2.013383        -0.463050        -0.167503
 C        -0.607270        -1.189509         0.218088
 C         0.210075         0.048069         0.385683
 O         1.236601         0.097812         1.039293
 C        -1.493385         0.566934        -1.287712
 O        -2.600628         1.491051        -1.650009
 H        -0.194111         2.626518        -1.476577
 H        -0.653414         3.308309         0.192235
 H         1.123134         2.431657        -0.114804
 H        -1.681873         0.455464         1.821062
 H        -2.682417         1.505363         0.679785
 H        -2.829141        -1.118487        -0.466437
 H        -0.514085        -1.819572         1.070930
 H        -0.291448        -1.764981        -0.700119
 H        -0.846208         0.247105        -2.172692
 H        -2.567114         1.558283        -2.655904
