19
Iteration:  2602charge 0 multiplicity 1
 C        -0.225916         2.598744        -0.124013
 C        -0.776251         1.186415        -0.046434
 C        -2.277676         0.799831         0.342275
 C        -1.874600        -0.489882        -0.514435
 C        -0.810881        -1.123682         0.327969
 C         0.016006         0.127715         0.842948
 O         0.816331         0.278126         1.750030
 C        -1.013151         0.426738        -1.412501
 O        -1.815526         1.121101        -2.412332
 H        -0.376582         2.992604        -1.150645
 H        -0.785575         3.195111         0.591672
 H         0.782622         2.527574         0.202502
 H        -2.288727         0.696895         1.518262
 H        -3.282907         1.281827         0.043171
 H        -2.702423        -1.056737        -0.902480
 H        -1.135111        -1.874279         1.084109
 H        -0.139918        -1.538803        -0.462604
 H        -0.372106        -0.108963        -2.048734
 H        -2.633825         1.202439        -1.928982
