19
Iteration:   627
 C         0.015918         2.420623        -0.421265
 C        -0.665360         1.192508        -0.184545
 C        -1.824310         0.668144         0.952008
 C        -1.902860        -0.431708        -0.148999
 C        -0.571842        -1.281095        -0.034349
 C         0.191008         0.021916         0.259895
 O         1.182201         0.146392         0.947606
 C        -1.584050         0.597386        -1.222681
 O        -2.715235         1.549703        -1.451946
 H         1.033086         2.203468        -0.851580
 H        -0.487129         3.205146        -1.056433
 H         0.224631         2.880270         0.607813
 H        -1.461304         0.306690         1.872722
 H        -2.667582         1.332211         0.942470
 H        -2.917062        -0.901258        -0.170688
 H        -0.611494        -1.946953         0.896618
 H        -0.419546        -1.851912        -0.986666
 H        -1.254993         0.361511        -2.220605
 H        -3.298909         1.045104        -2.023913
