19
Iteration:  3066charge 0 multiplicity 1
 C        -0.344550         2.683431         0.155247
 C        -0.820355         1.215242        -0.047978
 C        -2.392226         0.775715         0.260738
 C        -1.930844        -0.550849        -0.462027
 C        -0.981034        -1.176778         0.558942
 C        -0.149687         0.157340         0.781435
 O         0.919673         0.367166         1.349750
 C        -0.980681         0.384312        -1.311977
 O        -1.396131         1.017919        -2.491763
 H         0.427693         2.921707        -0.595522
 H        -1.244875         3.273792         0.050887
 H         0.029766         3.035368         1.203171
 H        -2.929272         0.638342         1.277432
 H        -3.000512         1.542387        -0.400742
 H        -2.637294        -1.325822        -0.939211
 H        -1.552350        -1.499117         1.444308
 H        -0.380209        -2.024472         0.259088
 H        -0.076448        -0.031650        -1.640269
 H        -2.279192         1.458077        -2.277566
