19
Iteration:  1172charge 0 multiplicity 1
 C         0.016096         2.590231        -0.269009
 C        -0.702130         1.179598        -0.185375
 C        -1.980424         0.723244         0.751068
 C        -1.912381        -0.460639        -0.243845
 C        -0.649876        -1.123489         0.064667
 C         0.153284         0.101687         0.462329
 O         1.044466         0.139757         1.317738
 C        -1.444105         0.495886        -1.374870
 O        -2.508834         1.218929        -1.807285
 H        -0.266714         3.187206        -1.124652
 H        -0.224624         3.168625         0.607104
 H         1.112401         2.594772        -0.393718
 H        -1.796238         0.424830         1.751712
 H        -2.919411         1.279826         0.643910
 H        -2.823421        -1.052024        -0.412830
 H        -0.734112        -1.745365         0.998559
 H        -0.202649        -1.861107        -0.764701
 H        -0.858367         0.159579        -2.291603
 H        -2.115572         2.035566        -2.297275
