19
Iteration:  1561
 C        -0.307082         2.684390         0.076988
 C        -0.835708         1.188692         0.059558
 C        -2.313238         0.715091         0.533686
 C        -1.954351        -0.490095        -0.334856
 C        -0.810341        -1.248653         0.425745
 C         0.137532         0.090688         0.579603
 O         1.321873         0.142174         0.966942
 C        -1.209482         0.525161        -1.316321
 O        -2.048318         1.325487        -2.149632
 H        -1.086584         3.280538         0.435373
 H         0.444248         2.605755         0.845384
 H         0.066665         3.160474        -0.898398
 H        -2.633823         0.522408         1.504224
 H        -3.051171         1.341210         0.036180
 H        -2.828972        -1.042855        -0.754237
 H        -1.135386        -1.534551         1.473823
 H        -0.334201        -2.190675         0.004952
 H        -0.320065        -0.006087        -1.807797
 H        -2.450005         0.817372        -2.884972
