19
Iteration:  3459
 C        -0.227319         2.624932        -0.086128
 C        -0.661447         1.127394        -0.091726
 C        -2.279503         0.742526         0.264412
 C        -1.841710        -0.618262        -0.550659
 C        -0.784969        -1.161704         0.361045
 C        -0.088520         0.190530         0.826224
 O         0.626915         0.381380         1.787292
 C        -0.991876         0.386276        -1.408968
 O        -1.735268         1.234421        -2.345417
 H         0.834726         2.569093        -0.165029
 H        -0.614194         3.178544        -0.848301
 H        -0.429789         3.059492         0.911588
 H        -2.834562         0.481033         1.207273
 H        -3.013667         1.384861        -0.385629
 H        -2.607017        -1.436880        -1.032010
 H        -0.910014        -1.863876         1.253771
 H         0.073075        -1.656681        -0.252071
 H        -0.087489         0.104346        -1.875125
 H        -2.651095         0.850578        -2.311034
