19
Iteration:   950
 C        -0.078870         2.514844        -0.223773
 C        -0.680163         1.178948        -0.112385
 C        -1.812182         0.817249         0.829864
 C        -1.938333        -0.418284        -0.166571
 C        -0.635138        -1.222077         0.082589
 C         0.210938         0.049508         0.413178
 O         1.195961         0.122223         1.114941
 C        -1.562843         0.520173        -1.307658
 O        -2.562357         1.347957        -1.925285
 H        -0.648832         3.341060         0.084542
 H         0.740309         2.523638         0.474178
 H         0.165568         2.646823        -1.261057
 H        -1.522570         0.661935         1.824632
 H        -2.641365         1.447611         0.688086
 H        -2.933031        -0.940446        -0.320953
 H        -0.887174        -1.778614         1.043755
 H        -0.296497        -1.996010        -0.740837
 H        -1.148885         0.070376        -2.182614
 H        -3.484796         1.234094        -1.498405
