19
Iteration:  2187charge 0 multiplicity 1
 C        -0.410284         2.691798         0.087819
 C        -0.857627         1.267231         0.163471
 C        -2.320749         0.718842         0.334126
 C        -1.969575        -0.489891        -0.419788
 C        -0.892388        -1.045101         0.517245
 C        -0.053340         0.161529         0.724079
 O         1.138836         0.119587         0.978330
 C        -1.020927         0.369440        -1.278034
 O        -1.759980         1.119779        -2.195475
 H        -0.090047         3.023880        -0.888189
 H        -1.070422         3.445685         0.448997
 H         0.447790         2.780460         0.762631
 H        -2.616974         0.624649         1.457356
 H        -3.144410         1.374440        -0.119850
 H        -2.822037        -1.020575        -0.974288
 H        -1.211513        -1.588738         1.378803
 H        -0.301791        -1.635668        -0.106978
 H        -0.137621        -0.194655        -1.670785
 H        -1.286616         1.282512        -3.031644
