19
Iteration:  2116charge 0 multiplicity 1
 C        -0.405599         2.677094         0.154960
 C        -0.928546         1.308472        -0.037903
 C        -2.267519         0.819358         0.376038
 C        -1.953963        -0.498926        -0.330716
 C        -0.829548        -1.191315         0.428097
 C        -0.033509         0.114071         0.618078
 O         1.069394         0.188189         1.085993
 C        -1.068970         0.381224        -1.278431
 O        -1.719425         1.159541        -2.175705
 H         0.276651         2.875390        -0.759897
 H        -0.993681         3.693427         0.248636
 H         0.343317         2.665218         1.027575
 H        -2.558366         0.710987         1.372904
 H        -3.006325         1.394814        -0.117602
 H        -2.757265        -1.097109        -0.763241
 H        -1.163285        -1.575653         1.452005
 H        -0.235869        -1.931272        -0.257894
 H        -0.196459        -0.178019        -1.705014
 H        -1.927516         0.575198        -2.895373
