19
Iteration:  3320charge 0 multiplicity 1
 C        -0.492925         2.590355         0.167338
 C        -0.883090         1.224852         0.099977
 C        -2.441595         0.711496         0.206336
 C        -1.846359        -0.536553        -0.496056
 C        -0.985160        -1.071102         0.589475
 C        -0.147296         0.217869         0.821666
 O         0.978464         0.251497         1.220982
 C        -0.873287         0.500617        -1.296134
 O        -1.396987         1.046834        -2.470183
 H         0.593432         2.639031        -0.133862
 H        -1.225932         3.276092        -0.426140
 H        -0.531518         2.854374         1.269064
 H        -2.957158         0.809800         1.172534
 H        -2.940313         1.330626        -0.498037
 H        -2.447885        -1.295496        -0.860697
 H        -1.654540        -1.278546         1.402684
 H        -0.391369        -1.907419         0.398966
 H         0.127957        -0.080924        -1.562458
 H        -2.296864         1.241187        -2.564439
