19
Iteration:  2133
 C        -0.427966         2.625120         0.165059
 C        -0.833030         1.167008         0.072795
 C        -2.403862         0.806885         0.415108
 C        -2.023180        -0.525258        -0.365711
 C        -0.871365        -1.048899         0.510055
 C         0.017888         0.154075         0.670444
 O         1.196211         0.179959         0.999168
 C        -1.107575         0.328813        -1.323453
 O        -1.664430         1.222184        -2.274462
 H         0.004875         3.082916        -0.717095
 H        -1.350472         3.093386         0.265461
 H         0.228404         2.831989         0.983839
 H        -2.665982         0.707095         1.562892
 H        -3.058907         1.589398        -0.145774
 H        -2.835260        -1.152571        -0.792656
 H        -1.305015        -1.399549         1.428373
 H        -0.399929        -1.875501         0.079649
 H        -0.153547        -0.199308        -1.562553
 H        -1.645263         0.809638        -3.106356
