19
Iteration:  4550
 C        -0.177508         2.703681        -0.087128
 C        -0.782400         1.275697        -0.080405
 C        -2.243687         0.924227         0.353517
 C        -1.871610        -0.496772        -0.466181
 C        -0.776297        -1.241314         0.289650
 C        -0.089809         0.103487         0.793872
 O         0.626978         0.254804         1.756036
 C        -0.985873         0.322909        -1.369592
 O        -1.795127         1.007438        -2.398201
 H         0.861306         2.757416         0.448633
 H        -0.022064         3.255558        -1.075070
 H        -0.884707         3.334803         0.507380
 H        -2.574537         0.856451         1.438239
 H        -2.878193         1.458939        -0.387376
 H        -2.715497        -1.108465        -0.887586
 H        -0.958800        -1.819625         1.202763
 H         0.078982        -1.553585        -0.389956
 H        -0.148098        -0.299673        -1.866284
 H        -1.431529         1.823393        -2.577687
