19
Iteration:  4126charge 0 multiplicity 1
 C        -0.468604         2.719108         0.226406
 C        -0.838769         1.215589         0.089143
 C        -2.346750         0.876456         0.139154
 C        -1.947175        -0.482670        -0.474264
 C        -1.007508        -1.080448         0.553841
 C        -0.121718         0.128025         0.776045
 O         1.011582         0.224986         1.279256
 C        -0.904682         0.315267        -1.326618
 O        -1.529532         0.950046        -2.412763
 H         0.589021         2.875745         0.053181
 H        -1.016939         3.334705        -0.524257
 H        -0.816929         3.205723         1.224728
 H        -2.755726         0.859063         1.127401
 H        -2.849254         1.639957        -0.467739
 H        -2.738189        -1.024369        -0.899441
 H        -1.682224        -1.406730         1.326272
 H        -0.296705        -1.871916         0.211864
 H        -0.006434        -0.214232        -1.506094
 H        -0.983768         1.506948        -2.887153
