19
Iteration:  3416
 C        -0.242168         2.660584        -0.092992
 C        -0.786532         1.207476        -0.095954
 C        -2.329026         0.607949         0.317989
 C        -1.831424        -0.590751        -0.540648
 C        -0.753848        -1.137203         0.447762
 C        -0.069390         0.197237         0.805046
 O         0.632653         0.300848         1.735597
 C        -0.955901         0.456817        -1.433288
 O        -1.692894         1.149861        -2.410941
 H         0.841360         2.596714        -0.204616
 H        -0.706946         3.203981        -0.889841
 H        -0.585824         3.119974         0.862665
 H        -2.470898         0.538135         1.424094
 H        -2.849813         1.538734        -0.094366
 H        -2.454142        -1.341701        -1.124330
 H        -1.249182        -1.653759         1.337423
 H        -0.056804        -1.866383        -0.101364
 H        -0.084412         0.044013        -1.857716
 H        -2.279509         1.795612        -2.104595
