19
Iteration:   872
 C        -0.035172         2.530971        -0.239172
 C        -0.703120         1.188652        -0.111922
 C        -1.934065         0.721794         0.821498
 C        -2.005625        -0.493010        -0.194649
 C        -0.696760        -1.173988         0.208426
 C         0.216351         0.049594         0.391250
 O         1.322066         0.112758         0.913575
 C        -1.568523         0.506776        -1.274100
 O        -2.584145         1.401218        -1.745037
 H         0.239506         2.705413        -1.286396
 H        -0.699487         3.362756         0.001105
 H         0.852046         2.656034         0.418622
 H        -1.833854         0.555978         1.848085
 H        -2.789517         1.401655         0.685901
 H        -2.981228        -1.030085        -0.193457
 H        -0.856191        -1.770541         1.209426
 H        -0.189558        -1.890979        -0.533403
 H        -1.106912         0.060994        -2.133744
 H        -2.203392         1.769707        -2.595450
