19
Iteration:  1086
 C        -0.364665         2.722288         0.077296
 C        -0.785863         1.270033         0.167561
 C        -2.129173         0.817038         0.779907
 C        -2.037163        -0.438637        -0.093380
 C        -0.848604        -1.230219         0.508924
 C         0.166646        -0.017309         0.481531
 O         1.368707         0.037047         0.383438
 C        -1.280355         0.467531        -1.218709
 O        -2.077712         1.304229        -2.132206
 H         0.592028         2.786285        -0.567795
 H        -1.136357         3.297275        -0.488194
 H        -0.322530         3.190590         1.099016
 H        -2.222328         0.561429         1.858818
 H        -3.028311         1.421088         0.476185
 H        -2.947426        -0.837186        -0.479529
 H        -1.017808        -1.706723         1.510739
 H        -0.492455        -1.989401        -0.317368
 H        -0.396919        -0.053285        -1.706107
 H        -2.794805         0.794772        -2.533443
