19
Iteration:   660charge 0 multiplicity 1
 C         0.030873         2.553039        -0.286313
 C        -0.593071         1.158448        -0.212424
 C        -1.804284         0.827834         0.814837
 C        -1.991874        -0.419647        -0.184878
 C        -0.582258        -1.204805         0.006239
 C         0.215202         0.068085         0.356038
 O         1.258534         0.011622         0.966985
 C        -1.629969         0.491143        -1.309349
 O        -2.775827         1.444235        -1.500106
 H         0.128979         2.883472        -1.339272
 H        -0.504425         3.357057         0.304802
 H         1.025547         2.380234         0.141141
 H        -1.488692         0.534134         1.793232
 H        -2.609851         1.531167         0.847650
 H        -2.935857        -1.003104        -0.155006
 H        -0.477869        -1.993503         0.851102
 H        -0.285040        -1.679105        -0.959464
 H        -1.208967         0.173131        -2.245904
 H        -3.588545         0.852322        -1.582058
