19
Iteration:  2473charge 0 multiplicity 1
 C        -0.454186         2.678446         0.102190
 C        -0.859052         1.248051         0.187657
 C        -2.340085         0.811086         0.349042
 C        -2.003412        -0.506838        -0.426260
 C        -0.977306        -1.216108         0.514916
 C        -0.012589         0.102498         0.760242
 O         1.136920         0.269211         1.181704
 C        -1.012234         0.377205        -1.353647
 O        -1.551595         1.124291        -2.424886
 H         0.596544         2.836082         0.506052
 H        -0.501739         2.970062        -0.988350
 H        -1.162788         3.308318         0.635882
 H        -2.808441         0.773991         1.256262
 H        -2.993188         1.300055        -0.315073
 H        -2.818068        -0.996646        -1.060067
 H        -1.476935        -1.754464         1.360188
 H        -0.213141        -1.903800         0.073843
 H        -0.008365        -0.076231        -1.605309
 H        -2.528424         1.327004        -2.256307
