19
Iteration:  1418charge 0 multiplicity 1
 C        -0.147954         2.572614         0.015521
 C        -0.773084         1.226156        -0.107477
 C        -2.079271         0.687904         0.632010
 C        -1.986359        -0.518380        -0.296941
 C        -0.702789        -1.189927         0.258446
 C         0.094662         0.086072         0.591664
 O         1.164910         0.215940         1.119427
 C        -1.362987         0.468900        -1.400562
 O        -2.288453         1.293109        -2.083816
 H         0.897689         2.488670        -0.119059
 H        -0.567195         3.335481        -0.634610
 H        -0.283527         3.127149         0.991112
 H        -1.928921         0.577341         1.706316
 H        -2.948010         1.319398         0.512390
 H        -2.854917        -1.145047        -0.537180
 H        -0.906161        -1.865134         1.153895
 H        -0.042811        -1.910714        -0.416918
 H        -0.637746        -0.098052        -2.054200
 H        -1.744939         2.039671        -2.159333
