19
Iteration:  2527charge 0 multiplicity 1
 C        -0.253313         2.638859         0.103885
 C        -0.785291         1.185793         0.035280
 C        -2.258329         0.805969         0.280861
 C        -1.937472        -0.539450        -0.406792
 C        -0.779454        -1.199908         0.427162
 C        -0.054398         0.082154         0.804864
 O         0.930127         0.338083         1.475075
 C        -1.111561         0.380380        -1.402226
 O        -1.781285         1.145480        -2.471353
 H         0.574512         2.600201        -0.643629
 H        -1.059662         3.234794        -0.374050
 H        -0.045271         3.053656         1.072642
 H        -2.664073         0.675941         1.207254
 H        -2.883576         1.395297        -0.351743
 H        -2.590030        -1.292257        -0.922193
 H        -1.375028        -1.619224         1.272370
 H        -0.150096        -1.936953        -0.144489
 H        -0.163234         0.097761        -1.945095
 H        -2.337991         1.820295        -2.014324
