19
Iteration:   152charge 0 multiplicity 1
 C        -0.154639         2.618466         0.088480
 C        -0.685924         1.206300        -0.012402
 C        -1.858807         0.712420         1.045391
 C        -1.943514        -0.416683         0.026569
 C        -0.709636        -1.241749         0.066626
 C         0.295630        -0.043053         0.053455
 O         1.493531        -0.065200         0.037109
 C        -1.595856         0.610531        -1.116494
 O        -2.739584         1.494164        -1.411271
 H        -0.917654         3.160129         0.635504
 H         0.849677         2.792041         0.661704
 H        -0.098280         3.232488        -0.807079
 H        -1.517832         0.507236         2.026618
 H        -2.741994         1.314877         1.061498
 H        -2.826912        -0.990113        -0.051056
 H        -0.645791        -1.955957         0.985161
 H        -0.439536        -1.751490        -0.865534
 H        -1.083983         0.376035        -2.078595
 H        -3.284450         1.109480        -2.090383
