19
Iteration:   930
 C        -0.101290         2.573744        -0.399657
 C        -0.602033         1.172683        -0.203313
 C        -1.874022         0.731728         0.838368
 C        -1.995148        -0.479751        -0.164519
 C        -0.650296        -1.163305         0.117580
 C         0.222284        -0.009685         0.342194
 O         1.092636         0.101176         1.185876
 C        -1.469786         0.513581        -1.311893
 O        -2.517477         1.434462        -1.723777
 H        -0.899809         3.238445        -0.631211
 H         0.299714         2.917019         0.567663
 H         0.637554         2.619755        -1.319581
 H        -1.526248         0.498218         1.824978
 H        -2.573037         1.524615         0.791125
 H        -2.902587        -1.094398        -0.152141
 H        -0.445934        -1.879772         0.900918
 H        -0.285841        -1.614224        -0.896755
 H        -0.974242         0.138310        -2.226987
 H        -3.372529         1.031336        -1.538345
