19
Iteration:  1453
 C        -0.031925         2.626860        -0.071013
 C        -0.640519         1.199035        -0.085006
 C        -2.049594         0.723848         0.518303
 C        -1.905052        -0.450815        -0.369397
 C        -0.651085        -1.261742         0.095760
 C         0.151816         0.049200         0.548536
 O         0.990485         0.212684         1.396716
 C        -1.334007         0.561762        -1.360897
 O        -2.454376         1.217186        -1.904873
 H         0.481739         2.607600        -0.951409
 H        -0.802579         3.317674        -0.292713
 H         0.607611         2.792702         0.834954
 H        -1.925354         0.671900         1.581373
 H        -2.857709         1.367413         0.150841
 H        -2.867040        -1.002113        -0.639111
 H        -0.990682        -1.729697         1.077642
 H         0.003246        -1.907698        -0.581138
 H        -0.813495         0.298958        -2.220257
 H        -2.377107         1.340782        -2.798127
