19
Iteration:  1701charge 0 multiplicity 1
 C        -0.293991         2.504353        -0.135079
 C        -0.742585         1.140144        -0.097808
 C        -2.163892         0.772988         0.515227
 C        -1.959737        -0.504603        -0.390392
 C        -0.722521        -1.142113         0.333263
 C         0.126009         0.060462         0.666084
 O         1.147172         0.161115         1.367305
 C        -1.233853         0.503010        -1.335163
 O        -2.178460         1.283443        -2.165685
 H         0.847651         2.447994        -0.170008
 H        -0.658698         3.078722        -1.019282
 H        -0.500915         3.089480         0.910626
 H        -2.285934         0.787745         1.690239
 H        -2.859794         1.522182         0.047344
 H        -2.817847        -0.983116        -0.876797
 H        -0.825820        -1.732159         1.217640
 H        -0.077221        -1.727307        -0.263082
 H        -0.619129         0.235460        -2.199860
 H        -2.292550         2.162687        -1.902641
