19
Iteration:  2741
 C        -0.399671         2.782999         0.278989
 C        -0.886887         1.338926         0.164415
 C        -2.365851         0.788290         0.300156
 C        -1.880557        -0.562573        -0.547756
 C        -0.988645        -1.120288         0.659644
 C        -0.112019         0.201062         0.815130
 O         1.059536         0.188548         1.199252
 C        -0.970632         0.259711        -1.505423
 O        -1.516293         1.028044        -2.507067
 H        -1.145678         3.499095         0.751763
 H         0.617209         3.003391         0.631091
 H        -0.267631         3.001147        -0.859415
 H        -2.762184         0.464912         1.218699
 H        -3.211444         1.290748        -0.043825
 H        -2.714819        -1.215510        -0.920254
 H        -1.808460        -1.280867         1.381785
 H        -0.361459        -1.965344         0.341248
 H         0.088075        -0.048323        -1.901619
 H        -2.330815         1.534094        -2.336011
