19
Iteration:  2343charge 0 multiplicity 1
 C        -0.299937         2.487512        -0.052142
 C        -0.805895         1.159872        -0.075823
 C        -2.109219         0.761163         0.427391
 C        -1.890227        -0.486836        -0.438260
 C        -0.731158        -1.189270         0.353319
 C        -0.007008         0.082552         0.727956
 O         0.829508         0.316734         1.558854
 C        -1.087912         0.477796        -1.444077
 O        -1.925293         1.268337        -2.274369
 H        -0.732442         3.270890         0.584832
 H         0.753250         2.657107         0.174114
 H        -0.501876         2.878961        -1.026885
 H        -2.168599         0.665282         1.657135
 H        -2.865555         1.413199         0.000244
 H        -2.736194        -1.153349        -0.808700
 H        -1.095736        -1.603868         1.277848
 H        -0.164947        -1.981456        -0.013386
 H        -0.226657         0.080007        -1.912840
 H        -2.033320         0.918470        -3.125155
