19
Iteration:   955
 C        -0.051683         2.551863        -0.185701
 C        -0.679309         1.208418        -0.069058
 C        -1.828895         0.803591         0.807188
 C        -1.988667        -0.462397        -0.177285
 C        -0.672046        -1.226058         0.109216
 C         0.218899         0.005980         0.414560
 O         1.226974         0.143242         1.088330
 C        -1.547779         0.510365        -1.322526
 O        -2.584221         1.334912        -1.960270
 H        -0.614255         3.448319         0.248334
 H         0.891750         2.496437         0.443224
 H         0.144638         2.721151        -1.318244
 H        -1.491086         0.703866         1.897388
 H        -2.659994         1.566962         0.667722
 H        -2.938464        -0.962118        -0.173619
 H        -0.717501        -1.807838         1.013226
 H        -0.327632        -1.869795        -0.662345
 H        -1.047606         0.063480        -2.235152
 H        -3.412142         1.302529        -1.520155
