19
Iteration:  3569charge 0 multiplicity 1
 C        -0.404834         2.675994         0.090782
 C        -0.993762         1.218349         0.004264
 C        -2.438036         0.772733         0.186477
 C        -1.868806        -0.551317        -0.506090
 C        -0.999398        -1.170452         0.632844
 C        -0.091094         0.128135         0.893407
 O         1.008653         0.283700         1.297629
 C        -0.904330         0.358106        -1.332075
 O        -1.438651         1.104556        -2.458723
 H         0.568860         2.729579        -0.339953
 H        -0.989296         3.311399        -0.501171
 H        -0.380745         3.134339         1.097323
 H        -2.804760         0.838216         1.246858
 H        -3.152333         1.359327        -0.419253
 H        -2.604088        -1.276099        -1.122020
 H        -1.560748        -1.319419         1.589758
 H        -0.471019        -2.119628         0.275385
 H         0.212122         0.213715        -1.485911
 H        -1.996049         1.744456        -2.076354
