19
Iteration:  2367charge 0 multiplicity 1
 C        -0.230654         2.693873         0.065118
 C        -0.731661         1.242669        -0.094357
 C        -2.331865         0.736992         0.309324
 C        -1.979300        -0.542631        -0.436968
 C        -0.822009        -1.221359         0.385737
 C        -0.012982         0.217397         0.735141
 O         0.969063         0.275972         1.451336
 C        -1.098175         0.346641        -1.407818
 O        -1.812883         1.188211        -2.232809
 H        -0.462331         3.034460         1.049455
 H         0.875550         2.856479         0.071562
 H        -0.706229         3.445879        -0.552466
 H        -2.689096         0.524657         1.497613
 H        -2.906822         1.511995        -0.221020
 H        -2.628774        -1.162545        -0.999996
 H        -1.035409        -1.856986         1.269553
 H        -0.119701        -1.865704        -0.159179
 H        -0.366628        -0.281242        -1.936501
 H        -2.451813         0.702786        -2.853743
