19
Iteration:  2096charge 0 multiplicity 1
 C        -0.190499         2.664762         0.069908
 C        -0.790310         1.218027         0.078522
 C        -2.317583         0.753591         0.457745
 C        -1.940356        -0.519382        -0.423326
 C        -0.837709        -1.218924         0.395837
 C        -0.030908         0.092394         0.719162
 O         1.049090         0.257329         1.246364
 C        -1.089884         0.488760        -1.344750
 O        -1.896566         1.184623        -2.334322
 H         0.495028         2.982389        -0.722140
 H        -1.176737         3.304217        -0.015733
 H         0.214508         2.979498         1.084670
 H        -2.539270         0.761361         1.525236
 H        -3.087242         1.271806        -0.069992
 H        -2.659179        -1.207588        -0.879587
 H        -1.124169        -1.718336         1.351726
 H        -0.107773        -1.799933        -0.259111
 H        -0.229415         0.122159        -1.895814
 H        -2.330937         0.499814        -2.818763
