19
Iteration:   952
 C        -0.070505         2.531599        -0.203194
 C        -0.680453         1.193534        -0.088932
 C        -1.818482         0.813849         0.820960
 C        -1.960309        -0.439712        -0.171311
 C        -0.650591        -1.222414         0.094632
 C         0.214587         0.029810         0.416326
 O         1.209781         0.131989         1.103652
 C        -1.554899         0.515012        -1.315301
 O        -2.572752         1.342136        -1.941840
 H        -0.599571         3.369774         0.155278
 H         0.794539         2.506500         0.480942
 H         0.150925         2.676553        -1.346631
 H        -1.492576         0.685714         1.840514
 H        -2.627034         1.486359         0.669662
 H        -2.939255        -0.936653        -0.258320
 H        -0.821361        -1.778746         1.024273
 H        -0.301138        -1.977753        -0.735362
 H        -1.128308         0.071302        -2.213598
 H        -3.461161         1.267413        -1.515493
