19
Iteration:  3447charge 0 multiplicity 1
 C        -0.210060         2.576410        -0.087940
 C        -0.735594         1.168466        -0.040179
 C        -2.250463         0.677643         0.228462
 C        -1.805739        -0.557840        -0.589487
 C        -0.710363        -1.204219         0.385534
 C        -0.166735         0.138055         0.875002
 O         0.652087         0.426784         1.795601
 C        -1.019504         0.379738        -1.459012
 O        -1.736557         1.230988        -2.326707
 H         0.819645         2.674044        -0.284087
 H        -0.693264         2.950118        -0.908275
 H        -0.483341         3.279147         0.718394
 H        -2.582748         0.657714         1.292352
 H        -2.649528         1.630248        -0.253720
 H        -2.564929        -1.325189        -1.160567
 H        -1.299548        -1.850649         1.114983
 H         0.077935        -1.821513        -0.182200
 H        -0.213320        -0.048148        -2.045598
 H        -2.754609         1.210268        -2.195062
