19
Iteration:   650
 C         0.113727         2.539116        -0.346578
 C        -0.615302         1.207217        -0.145500
 C        -1.801152         0.764801         0.828073
 C        -2.025390        -0.541834        -0.186220
 C        -0.639486        -1.211436        -0.029664
 C         0.262497        -0.026969         0.294684
 O         1.260985         0.101972         1.025770
 C        -1.631299         0.556267        -1.288026
 O        -2.779282         1.470555        -1.470606
 H         0.461948         2.722036        -1.429511
 H        -0.704664         3.366359        -0.140053
 H         0.914459         2.768475         0.342021
 H        -1.456253         0.634586         1.766104
 H        -2.552146         1.488061         0.728460
 H        -3.000791        -1.060021        -0.209547
 H        -0.591258        -2.012813         0.816905
 H        -0.270934        -1.633295        -0.964651
 H        -1.404999         0.299262        -2.312705
 H        -3.550253         0.838754        -1.658422
