19
Iteration:  1423charge 0 multiplicity 1
 C        -0.150704         2.577854        -0.001417
 C        -0.761901         1.222572        -0.112775
 C        -2.081622         0.700037         0.653736
 C        -1.963051        -0.522049        -0.318186
 C        -0.698535        -1.218685         0.257393
 C         0.089077         0.102130         0.560961
 O         1.149010         0.215254         1.164302
 C        -1.343525         0.439698        -1.388987
 O        -2.315042         1.292306        -2.071384
 H         0.970586         2.428024        -0.197858
 H        -0.532080         3.366662        -0.682492
 H        -0.181578         2.865213         1.064091
 H        -1.888751         0.592676         1.744537
 H        -2.919420         1.421625         0.534271
 H        -2.822603        -1.175908        -0.552725
 H        -0.952788        -1.808272         1.107750
 H        -0.038102        -1.678665        -0.393895
 H        -0.724773         0.107860        -2.234402
 H        -1.818896         2.151871        -2.356808
