19
Iteration:  2100
 C        -0.212611         2.716517         0.091781
 C        -0.803802         1.220517         0.068826
 C        -2.319127         0.768098         0.435475
 C        -1.944834        -0.536298        -0.394952
 C        -0.838023        -1.238669         0.403350
 C        -0.042925         0.111586         0.688589
 O         1.038391         0.246063         1.207723
 C        -1.062322         0.472972        -1.317036
 O        -1.868614         1.175221        -2.312168
 H         0.445838         2.948251        -0.720739
 H        -1.094087         3.238480         0.039602
 H         0.244471         2.919419         1.025788
 H        -2.484008         0.811862         1.568977
 H        -3.145365         1.309476        -0.115779
 H        -2.722530        -1.200536        -0.820527
 H        -1.048395        -1.806966         1.284998
 H        -0.229214        -1.856005        -0.195512
 H        -0.122894         0.185885        -1.848333
 H        -2.348350         0.550633        -2.929562
