19
Iteration:   149charge 0 multiplicity 1
 C        -0.180623         2.592477         0.039226
 C        -0.688404         1.213193        -0.003500
 C        -1.833761         0.704194         1.040057
 C        -1.937885        -0.419457         0.009094
 C        -0.701976        -1.242870         0.053223
 C         0.305110        -0.037131         0.051493
 O         1.486036        -0.065844         0.063663
 C        -1.592102         0.628479        -1.090007
 O        -2.734645         1.510332        -1.404948
 H        -0.957475         3.174681         0.585522
 H         0.776437         2.693998         0.748784
 H        -0.031891         3.217903        -0.849443
 H        -1.475089         0.467924         2.085908
 H        -2.758257         1.313851         1.023249
 H        -2.879664        -0.995243        -0.002013
 H        -0.702600        -1.963233         0.969344
 H        -0.443133        -1.694047        -0.903600
 H        -1.042268         0.330891        -2.080953
 H        -3.427579         1.089129        -2.000712
