19
Iteration:  3169charge 0 multiplicity 1
 C        -0.133716         2.607102        -0.073335
 C        -0.714177         1.164132        -0.054735
 C        -2.232502         0.676669         0.278940
 C        -1.796117        -0.542097        -0.584764
 C        -0.762404        -1.149924         0.366457
 C        -0.079570         0.166966         0.897832
 O         0.583900         0.429248         1.840834
 C        -1.095179         0.402874        -1.535951
 O        -1.846291         1.161054        -2.341519
 H         0.819828         2.500389        -0.578043
 H        -0.691801         3.376820        -0.642415
 H         0.082033         2.822343         0.898650
 H        -2.287174         0.299064         1.340621
 H        -3.001426         1.392345        -0.037457
 H        -2.429553        -1.303362        -0.924367
 H        -1.256826        -1.807252         1.093493
 H         0.005248        -1.779872        -0.133750
 H        -0.399942        -0.081353        -2.069293
 H        -1.370283         1.250626        -3.120375
