19
Iteration:  2067
 C        -0.190440         2.526819        -0.010340
 C        -0.820300         1.224181        -0.086000
 C        -2.194940         0.725122         0.432416
 C        -1.919825        -0.554381        -0.449821
 C        -0.745701        -1.139914         0.351152
 C         0.089605         0.173373         0.666776
 O         0.948776         0.224103         1.548176
 C        -1.131276         0.452388        -1.487457
 O        -2.040905         1.282117        -2.236814
 H         0.844566         2.545250        -0.373802
 H        -0.644195         3.278697        -0.559152
 H        -0.195275         2.881298         0.992104
 H        -2.106167         0.613383         1.581943
 H        -3.121879         1.314705         0.168872
 H        -2.717255        -1.246885        -0.794341
 H        -0.996393        -1.462376         1.336864
 H        -0.180629        -1.784826        -0.242697
 H        -0.196569         0.220984        -2.093503
 H        -2.736526         0.668671        -2.662900
