19
Iteration:  1470
 C        -0.038849         2.643350        -0.173594
 C        -0.691996         1.308928        -0.144384
 C        -2.006075         0.762388         0.606179
 C        -1.872051        -0.539111        -0.421506
 C        -0.640825        -1.229259         0.151063
 C         0.113815         0.029171         0.593259
 O         0.963615         0.133351         1.457454
 C        -1.299615         0.472010        -1.407287
 O        -2.481965         1.283863        -1.889931
 H         0.434475         3.164392        -1.161186
 H        -0.786965         3.427520         0.205802
 H         0.845824         2.665334         0.496153
 H        -2.184087         0.605318         1.713539
 H        -2.781575         1.508934         0.387725
 H        -2.598108        -1.226918        -0.803865
 H        -0.699498        -1.983180         0.926032
 H        -0.153075        -1.567963        -0.775685
 H        -0.612965         0.222998        -2.369043
 H        -2.436120         1.149994        -2.794128
