19
Iteration:  4033
 C        -0.270027         2.607899        -0.114531
 C        -0.663868         1.205611        -0.082747
 C        -2.226419         0.864587         0.286314
 C        -1.939030        -0.471839        -0.476327
 C        -0.704537        -1.146350         0.380860
 C        -0.029825         0.137558         0.773374
 O         0.611991         0.206304         1.802033
 C        -1.023691         0.327856        -1.415425
 O        -1.801703         1.109864        -2.376246
 H         0.808006         2.695710         0.326398
 H        -0.233694         3.075678        -1.170170
 H        -0.960800         3.358348         0.415798
 H        -2.621567         0.839768         1.305471
 H        -2.894666         1.425392        -0.430518
 H        -2.679179        -1.244654        -0.808090
 H        -1.197123        -1.619006         1.260735
 H        -0.013571        -1.852573        -0.082462
 H        -0.118192         0.000574        -1.881667
 H        -1.251654         1.963506        -2.621410
