19
Iteration:  4501
 C        -0.286497         2.645433        -0.023304
 C        -0.745720         1.188747        -0.047552
 C        -2.240894         0.756392         0.215092
 C        -1.871378        -0.543954        -0.582784
 C        -0.986936        -1.232660         0.507405
 C        -0.135707         0.155064         0.895047
 O         0.848206         0.329967         1.568636
 C        -1.000828         0.391884        -1.387452
 O        -1.702892         1.146387        -2.318166
 H         0.739959         2.684973         0.348511
 H        -0.142086         3.043445        -1.050857
 H        -0.985375         3.432993         0.368321
 H        -2.393322         0.691128         1.274243
 H        -3.064729         1.439185        -0.104711
 H        -2.647791        -1.220429        -0.969267
 H        -1.608861        -1.489999         1.392492
 H        -0.279384        -1.981524         0.148233
 H        -0.077589         0.015691        -1.856682
 H        -1.128961         1.443765        -3.133655
