19
Iteration:  3435
 C        -0.265188         2.551930        -0.145282
 C        -0.781996         1.160342        -0.028627
 C        -2.217162         0.725590         0.224342
 C        -1.783358        -0.520388        -0.581197
 C        -0.763121        -1.182656         0.368384
 C        -0.080739         0.125395         0.906085
 O         0.639747         0.402395         1.792405
 C        -0.967360         0.436718        -1.458192
 O        -1.739896         1.217108        -2.362534
 H         0.789355         2.457380        -0.177335
 H        -0.631610         3.061809        -0.971361
 H        -0.488400         3.051483         0.812422
 H        -2.379824         0.534458         1.299047
 H        -3.251446         0.944699        -0.150060
 H        -2.686055        -1.227566        -0.990503
 H        -1.255214        -1.724036         1.228149
 H         0.008975        -1.912753        -0.038029
 H        -0.132034        -0.012703        -2.041846
 H        -2.539672         1.376524        -1.934680
