19
Iteration:  2922charge 0 multiplicity 1
 C        -0.177407         2.592677        -0.004846
 C        -0.845224         1.224896         0.001890
 C        -2.281740         0.684627         0.371926
 C        -1.887410        -0.545949        -0.544537
 C        -0.879939        -1.086501         0.312770
 C        -0.084479         0.218150         0.833030
 O         0.764960         0.374738         1.674940
 C        -1.014587         0.373753        -1.411421
 O        -1.644157         1.088752        -2.467746
 H         0.725016         2.554969         0.646322
 H         0.058228         2.777277        -1.085403
 H        -0.855270         3.433044         0.230626
 H        -2.514247         0.336740         1.458694
 H        -3.259850         1.267327         0.192475
 H        -2.480482        -1.210360        -1.190148
 H        -1.203386        -1.623541         1.198631
 H        -0.134450        -1.784096        -0.066596
 H        -0.199678        -0.056259        -1.908642
 H        -2.492893         1.367837        -2.162175
