19
Iteration:  4711
 C        -0.436942         2.685772         0.160267
 C        -0.872210         1.230128         0.079953
 C        -2.379973         0.866068         0.168690
 C        -1.973741        -0.473926        -0.444189
 C        -1.042086        -1.141929         0.527179
 C        -0.130836         0.126672         0.817158
 O         1.013147         0.296119         1.246260
 C        -0.935446         0.315694        -1.261831
 O        -1.458276         0.945081        -2.439340
 H         0.533099         3.065988        -0.227859
 H        -1.201326         3.316760        -0.290623
 H        -0.439128         2.896436         1.185588
 H        -2.880561         0.896391         1.304315
 H        -2.814481         1.534197        -0.595728
 H        -2.555427        -1.114641        -1.199232
 H        -1.585615        -1.311180         1.452061
 H        -0.408195        -1.945095         0.278253
 H         0.013776        -0.147151        -1.383696
 H        -0.754260         1.650130        -2.675593
