19
Iteration:  3504
 C        -0.259731         2.663173         0.046593
 C        -0.763641         1.211408        -0.027307
 C        -2.266054         0.691362         0.274121
 C        -1.912335        -0.515412        -0.501475
 C        -0.856996        -1.132239         0.405711
 C        -0.103658         0.126615         0.801279
 O         0.769417         0.330846         1.683674
 C        -0.963551         0.473859        -1.359052
 O        -1.743192         1.057360        -2.484183
 H         0.720564         2.999381        -0.262640
 H        -1.028901         3.221649        -0.487005
 H        -0.407805         2.976167         1.056562
 H        -2.471803         0.808703         1.383084
 H        -2.971305         1.413562        -0.203990
 H        -2.699406        -1.173568        -1.050815
 H        -1.173689        -1.804557         1.242501
 H        -0.120081        -1.780304        -0.189375
 H        -0.087392         0.097934        -1.820558
 H        -1.149976         0.818409        -3.197600
