19
Iteration:  1513
 C        -0.207729         2.647371        -0.152751
 C        -0.711463         1.094559        -0.089736
 C        -2.108440         0.726382         0.638488
 C        -1.971443        -0.536301        -0.332346
 C        -0.667842        -1.277915         0.147048
 C         0.155713        -0.009584         0.560306
 O         1.034671         0.261815         1.350352
 C        -1.342747         0.508239        -1.326865
 O        -2.169638         1.431192        -2.007996
 H        -0.808648         3.204768        -0.992612
 H        -0.210337         3.154585         0.850146
 H         0.812586         2.716214        -0.560792
 H        -1.924450         0.612134         1.762081
 H        -2.935737         1.442046         0.550923
 H        -2.747466        -1.176508        -0.719473
 H        -0.847119        -1.992204         0.923627
 H        -0.138939        -1.794420        -0.604192
 H        -0.641203        -0.077973        -1.946298
 H        -2.631205         1.011987        -2.728721
