19
Iteration:  2331charge 0 multiplicity 1
 C        -0.238692         2.585371        -0.178264
 C        -0.722723         1.155630        -0.045705
 C        -2.177646         0.725492         0.511096
 C        -1.872562        -0.525575        -0.452480
 C        -0.701137        -1.264236         0.374994
 C         0.022073         0.137336         0.674406
 O         0.768367         0.286710         1.626267
 C        -1.115745         0.492295        -1.438538
 O        -1.972538         1.295788        -2.266609
 H        -0.962369         3.206812         0.405662
 H         0.770463         2.508397         0.198077
 H        -0.200456         2.835273        -1.226923
 H        -2.337242         0.456603         1.653320
 H        -2.926802         1.491774         0.257660
 H        -2.735089        -1.114605        -0.966256
 H        -1.055562        -1.584008         1.323208
 H        -0.071638        -1.945572        -0.115500
 H        -0.367936         0.105460        -2.067484
 H        -1.653614         1.064796        -3.217986
