19
Iteration:  3796charge 0 multiplicity 1
 C        -0.249626         2.589319         0.048195
 C        -0.802348         1.220756         0.061595
 C        -2.316084         0.850310         0.144018
 C        -1.809232        -0.498334        -0.514962
 C        -0.825900        -1.152093         0.475140
 C        -0.136849         0.121759         0.780748
 O         0.741935         0.321137         1.570014
 C        -0.992787         0.367620        -1.384835
 O        -1.726866         1.061653        -2.378027
 H         0.278683         2.732087        -0.861409
 H        -0.928406         3.344675         0.196773
 H         0.535546         2.711308         0.907936
 H        -2.649496         0.906197         1.312421
 H        -2.928326         1.507832        -0.535068
 H        -2.706866        -1.160196        -0.856930
 H        -1.534548        -1.511022         1.254591
 H        -0.080012        -1.958660         0.299888
 H        -0.077640        -0.076406        -1.729081
 H        -1.039900         1.399043        -3.042708
