19
Iteration:   280charge 0 multiplicity 1
 C        -0.262609         2.694953        -0.046733
 C        -0.646368         1.192261        -0.025399
 C        -1.766497         0.735379         0.995840
 C        -2.073026        -0.443060        -0.007123
 C        -0.689067        -1.289633         0.198210
 C         0.279951        -0.044417         0.077398
 O         1.465748        -0.104527         0.171214
 C        -1.634477         0.581965        -1.112190
 O        -2.601701         1.528909        -1.459537
 H        -0.207252         3.059275        -1.085265
 H        -1.162864         3.282129         0.448534
 H         0.594058         2.981144         0.514699
 H        -1.384837         0.348020         2.026532
 H        -2.605811         1.477640         0.933000
 H        -3.096722        -0.878737         0.003669
 H        -0.369647        -1.877793         1.118437
 H        -0.441109        -1.988055        -0.566807
 H        -1.152412         0.274857        -2.050641
 H        -2.967353         1.412790        -2.373425
