19
Iteration:   916charge 0 multiplicity 1
 C        -0.089789         2.698326        -0.474577
 C        -0.630224         1.172272        -0.161625
 C        -1.839034         0.718780         0.730474
 C        -1.993318        -0.523417        -0.153017
 C        -0.666962        -1.309431         0.053632
 C         0.198372         0.064246         0.429593
 O         1.146180         0.108791         1.184889
 C        -1.530875         0.467385        -1.291220
 O        -2.476953         1.488459        -1.591702
 H        -0.764529         3.147572        -1.183985
 H         0.123167         3.321695         0.368623
 H         0.841908         2.587816        -0.896990
 H        -1.676720         0.553685         1.757296
 H        -2.692339         1.366071         0.648967
 H        -2.962262        -1.052608        -0.381981
 H        -0.747661        -2.061859         0.923478
 H        -0.325964        -1.871901        -0.885556
 H        -1.074772         0.029161        -2.162746
 H        -3.285333         0.987437        -1.929431
