19
Iteration:   524charge 0 multiplicity 1
 C        -0.217279         2.618758         0.176085
 C        -0.741846         1.242359         0.119921
 C        -1.988547         0.777684         0.890677
 C        -2.014417        -0.420662        -0.023446
 C        -0.738935        -1.183824         0.400397
 C         0.228667         0.025200         0.252585
 O         1.411111        -0.052159        -0.031656
 C        -1.465062         0.539889        -1.106084
 O        -2.422515         1.383809        -1.815814
 H        -0.824067         3.358766         0.688857
 H         0.734523         2.559216         0.682652
 H         0.041009         3.012385        -0.826122
 H        -1.997499         0.831092         2.056597
 H        -2.880546         1.381625         0.604136
 H        -2.931578        -0.952324        -0.222931
 H        -0.860271        -1.386756         1.455742
 H        -0.403583        -2.178635        -0.039203
 H        -0.849015         0.075662        -1.853311
 H        -3.068232         0.813170        -2.210814
