19
Iteration:  3434
 C        -0.272770         2.547510        -0.141778
 C        -0.781950         1.161951        -0.039535
 C        -2.221809         0.727208         0.231084
 C        -1.782106        -0.523045        -0.578414
 C        -0.770505        -1.181823         0.368843
 C        -0.078067         0.128167         0.898629
 O         0.642046         0.398405         1.795972
 C        -0.967422         0.436597        -1.451707
 O        -1.737688         1.216508        -2.369163
 H         0.805600         2.463810        -0.171841
 H        -0.621724         3.095729        -1.007411
 H        -0.466005         3.055131         0.813711
 H        -2.411454         0.516197         1.285643
 H        -3.237899         0.922227        -0.118199
 H        -2.666389        -1.219210        -0.976773
 H        -1.224071        -1.710817         1.225378
 H        -0.018882        -1.898115        -0.025640
 H        -0.085227         0.018094        -2.062698
 H        -2.524272         1.383480        -1.896931
