19
Iteration:  1030
 C        -0.268841         2.651544         0.074209
 C        -0.810775         1.242514         0.090951
 C        -2.150130         0.828792         0.744668
 C        -2.045841        -0.509387        -0.143974
 C        -0.819005        -1.143710         0.565066
 C         0.191485         0.033502         0.469758
 O         1.392017         0.057959         0.295023
 C        -1.387637         0.377427        -1.205678
 O        -2.161822         1.282569        -2.028989
 H         0.320011         2.778083         0.983928
 H         0.263209         2.909810        -0.855355
 H        -1.126525         3.415693         0.216617
 H        -2.224876         0.671285         1.826575
 H        -2.986082         1.463453         0.424909
 H        -2.962434        -1.024181        -0.361165
 H        -1.248836        -1.397594         1.541022
 H        -0.463547        -2.184681         0.196885
 H        -0.601229         0.015153        -1.890000
 H        -1.633693         2.140957        -2.177552
