19
Iteration:  2000charge 0 multiplicity 1
 C        -0.096802         2.663108        -0.242522
 C        -0.721868         1.191501        -0.069368
 C        -2.116864         0.646589         0.556430
 C        -1.906552        -0.618245        -0.374286
 C        -0.612021        -1.193256         0.270102
 C        -0.018250         0.151430         0.711205
 O         0.810922         0.180588         1.621034
 C        -1.243499         0.474773        -1.403542
 O        -2.088799         1.393003        -2.226977
 H         0.884929         2.833538         0.034627
 H        -0.191509         2.770513        -1.316443
 H        -0.795743         3.362438         0.156063
 H        -2.254076         0.392911         1.698668
 H        -2.967512         1.222827         0.174373
 H        -2.773891        -1.265777        -0.592627
 H        -0.699324        -1.753491         1.161460
 H         0.081663        -1.603618        -0.416399
 H        -0.522140         0.054963        -2.164473
 H        -2.212001         1.037737        -3.067405
