19
Iteration:  3248charge 0 multiplicity 1
 C        -0.430221         2.629261         0.040909
 C        -0.839124         1.165474         0.015229
 C        -2.357422         0.799173         0.346416
 C        -1.862346        -0.508815        -0.503010
 C        -0.893328        -1.167419         0.479909
 C        -0.062061         0.084973         0.851529
 O         0.897889         0.310547         1.491550
 C        -0.964202         0.386615        -1.371065
 O        -1.512201         1.207846        -2.503284
 H         0.603115         2.862679         0.276058
 H        -0.731973         3.053404        -0.911601
 H        -1.058117         3.126431         0.751073
 H        -2.823636         0.727389         1.364246
 H        -3.086094         1.360790        -0.270363
 H        -2.584087        -1.205674        -1.069279
 H        -1.510660        -1.477793         1.390127
 H        -0.269304        -2.076256         0.202660
 H        -0.084873        -0.065171        -1.579287
 H        -2.180943         0.748257        -2.952698
