19
Iteration:  4630
 C        -0.301404         2.568283         0.014268
 C        -0.822585         1.174034        -0.014378
 C        -2.284834         0.808813         0.147106
 C        -1.904628        -0.503960        -0.547131
 C        -0.882492        -1.111130         0.455668
 C        -0.125261         0.162389         0.859354
 O         0.817680         0.339455         1.546613
 C        -0.964913         0.370332        -1.378138
 O        -1.657814         1.097532        -2.259162
 H         0.613968         2.707157        -0.533061
 H        -1.085233         3.056610        -0.582798
 H        -0.101894         2.964233         1.050531
 H        -2.694166         0.767872         1.265148
 H        -2.888008         1.595141        -0.470043
 H        -2.553991        -1.209308        -1.038139
 H        -1.454440        -1.498301         1.361399
 H        -0.156638        -1.976983         0.152856
 H        -0.066794        -0.134011        -1.836088
 H        -1.215562         1.126510        -3.067086
