19
Iteration:   809
 C        -0.116703         2.764220         0.193728
 C        -0.773594         1.282888         0.093631
 C        -2.105016         0.858695         0.822254
 C        -2.080459        -0.412740        -0.061795
 C        -0.794940        -1.196091         0.532441
 C         0.238022         0.005218         0.337297
 O         1.458241        -0.039342         0.202309
 C        -1.451440         0.467206        -1.236985
 O        -2.424080         1.155147        -2.035475
 H         0.892251         2.641456         0.562806
 H        -0.140011         3.194677        -0.805258
 H        -0.605044         3.444703         1.097441
 H        -2.118202         0.553979         1.894238
 H        -2.938014         1.497424         0.541710
 H        -3.056065        -0.901224        -0.301364
 H        -0.957758        -1.572377         1.501601
 H        -0.294352        -1.988506        -0.071737
 H        -0.680832        -0.083783        -1.889982
 H        -2.116272         2.128426        -2.068651
