19
Iteration:   983charge 0 multiplicity 1
 C         0.010031         2.583490        -0.017021
 C        -0.690649         1.272255        -0.083135
 C        -2.103391         0.773496         0.799576
 C        -1.983675        -0.415486        -0.172433
 C        -0.738554        -1.132739         0.229856
 C         0.147706         0.086014         0.426970
 O         1.316132         0.106073         0.779830
 C        -1.458114         0.472100        -1.255197
 O        -2.467401         1.161234        -1.970709
 H        -0.322754         3.056716         0.846036
 H         1.070761         2.345919         0.049869
 H        -0.095885         3.244594        -0.858030
 H        -1.940062         0.759162         1.845915
 H        -2.893833         1.449803         0.610514
 H        -2.950023        -0.931116        -0.400609
 H        -0.818085        -1.667482         1.221685
 H        -0.310501        -1.915156        -0.519463
 H        -0.969891        -0.090952        -2.034944
 H        -3.027980         1.810682        -1.535033
