19
Iteration:  4735charge 0 multiplicity 1
 C        -0.334431         2.609583         0.224854
 C        -0.917849         1.269392        -0.006819
 C        -2.380567         0.778823         0.007723
 C        -1.907698        -0.538342        -0.481877
 C        -0.967715        -1.029782         0.678166
 C        -0.214573         0.186682         0.856871
 O         0.982149         0.244823         1.272052
 C        -0.874493         0.384200        -1.348644
 O        -1.605316         1.006913        -2.392601
 H         0.795979         2.397773         0.180383
 H        -0.515811         3.365849        -0.604163
 H        -0.487170         3.017283         1.265371
 H        -2.637841         0.597788         1.138340
 H        -3.145998         1.372562        -0.635747
 H        -2.668338        -1.327309        -0.914449
 H        -1.544957        -1.273791         1.544550
 H        -0.226740        -1.779110         0.449136
 H         0.110099         0.046661        -1.633246
 H        -1.017589         1.636324        -2.700381
