19
Iteration:  2837
 C        -0.301325         2.609231        -0.056352
 C        -0.843822         1.226817         0.037094
 C        -2.224747         0.754268         0.370481
 C        -1.864082        -0.486924        -0.455641
 C        -0.771128        -1.213850         0.401470
 C        -0.119285         0.116097         0.800407
 O         0.746785         0.258785         1.648357
 C        -0.998459         0.518059        -1.470486
 O        -1.642934         1.082877        -2.509293
 H         0.365056         2.873385         0.741855
 H         0.245257         2.744208        -0.950573
 H        -1.100275         3.410850        -0.079317
 H        -2.558434         0.628127         1.394686
 H        -3.072367         1.296457        -0.127050
 H        -2.847442        -1.058542        -0.741135
 H        -1.295837        -1.519479         1.331209
 H         0.023775        -1.923853         0.081994
 H        -0.045374         0.061086        -1.842841
 H        -2.373484         1.745174        -2.225801
