19
Iteration:  4121
 C        -0.455627         2.719116         0.241060
 C        -0.833469         1.205077         0.087114
 C        -2.331184         0.916289         0.138863
 C        -1.919141        -0.479082        -0.497281
 C        -0.984531        -1.101793         0.549239
 C        -0.142161         0.171466         0.817858
 O         0.998629         0.225074         1.279012
 C        -0.959406         0.293876        -1.358457
 O        -1.550557         0.955780        -2.396345
 H         0.676145         2.808590         0.106472
 H        -0.889069         3.260917        -0.624479
 H        -0.759141         3.207658         1.206713
 H        -2.783931         0.872844         1.167305
 H        -3.041457         1.490983        -0.492498
 H        -2.597076        -1.220364        -1.089714
 H        -1.599459        -1.412911         1.443866
 H        -0.333032        -1.914911         0.219403
 H         0.040006        -0.211572        -1.588921
 H        -0.846205         1.530622        -2.882830
