19
Iteration:  1816charge 0 multiplicity 1
 C        -0.282776         2.597116        -0.026160
 C        -0.746856         1.162147        -0.024951
 C        -2.132665         0.829484         0.497975
 C        -1.910033        -0.519074        -0.395314
 C        -0.828933        -1.196606         0.394788
 C         0.040923         0.047024         0.576211
 O         1.037580         0.201526         1.219304
 C        -1.168298         0.499873        -1.328185
 O        -2.054113         1.237147        -2.109024
 H        -1.107501         3.341774        -0.351651
 H         0.044258         2.980300         0.954089
 H         0.497516         2.885525        -0.724249
 H        -2.266233         0.686808         1.509844
 H        -2.856343         1.502488         0.118146
 H        -2.748029        -1.117541        -0.769211
 H        -1.179507        -1.534914         1.425061
 H        -0.246671        -2.049000        -0.048340
 H        -0.260438         0.212595        -1.900099
 H        -1.747917         1.045587        -2.976707
