19
Iteration:  2015
 C        -0.247794         2.477676        -0.273276
 C        -0.682360         1.151284        -0.130261
 C        -2.123949         0.701396         0.544793
 C        -1.879143        -0.440393        -0.437698
 C        -0.598442        -1.126529         0.212773
 C         0.091247         0.094534         0.688191
 O         0.770444         0.255721         1.701554
 C        -1.248609         0.416279        -1.446482
 O        -2.081259         1.351141        -2.100421
 H         0.882692         2.509187         0.131980
 H        -0.181189         2.961672        -1.242030
 H        -0.707472         3.212992         0.413008
 H        -2.040081         0.520624         1.589041
 H        -2.885012         1.471467         0.324115
 H        -2.625234        -1.188275        -0.746139
 H        -0.980643        -1.811964         1.029084
 H        -0.000608        -1.649932        -0.609129
 H        -0.421942         0.003498        -2.057041
 H        -2.286671         0.990988        -2.996598
