19
Iteration:  2394
 C        -0.364391         2.550823         0.122738
 C        -0.893462         1.251362         0.110906
 C        -2.332589         0.824116         0.314293
 C        -1.868748        -0.487089        -0.420597
 C        -0.877120        -1.119158         0.497331
 C        -0.060023         0.145127         0.724081
 O         1.035957         0.230331         1.242748
 C        -1.000882         0.486624        -1.341625
 O        -1.728466         1.110009        -2.395841
 H         0.059292         2.788062         1.164823
 H         0.546290         2.556950        -0.504926
 H        -1.030923         3.440790        -0.097566
 H        -2.723710         0.717796         1.262098
 H        -2.951479         1.544042        -0.286790
 H        -2.511955        -1.286959        -0.928149
 H        -1.261850        -1.628172         1.418091
 H        -0.167818        -1.945064         0.046134
 H        -0.030248        -0.018211        -1.777169
 H        -2.549815         0.582613        -2.605950
