19
Iteration:  4972charge 0 multiplicity 1
 C        -0.518234         2.704893         0.077233
 C        -0.890474         1.297290         0.161421
 C        -2.333168         0.829242         0.219116
 C        -1.954541        -0.498161        -0.485279
 C        -1.045186        -1.063412         0.582863
 C        -0.026907         0.122578         0.787883
 O         1.083520         0.122873         1.185198
 C        -0.890020         0.306330        -1.304372
 O        -1.581243         1.094464        -2.345889
 H        -1.387993         3.422503         0.235591
 H         0.317546         2.843965         0.878718
 H        -0.101617         2.908219        -0.975906
 H        -2.892673         0.620886         1.148739
 H        -3.018527         1.392575        -0.456479
 H        -2.748903        -1.176513        -0.816139
 H        -1.576886        -1.338883         1.559891
 H        -0.395650        -1.864610         0.140862
 H         0.006159        -0.215464        -1.555942
 H        -0.801740         1.552138        -2.726329
