19
Iteration:  4266charge 0 multiplicity 1
 C        -0.178020         2.673797        -0.084481
 C        -0.704261         1.200142        -0.043439
 C        -2.183510         0.859065         0.313816
 C        -1.827097        -0.480941        -0.502824
 C        -0.811383        -1.122789         0.335401
 C        -0.066670         0.026201         0.814696
 O         0.598905         0.275078         1.776630
 C        -1.024915         0.466280        -1.412588
 O        -1.835182         0.963793        -2.408595
 H         0.897261         2.671648        -0.023113
 H        -0.591746         3.248973        -0.920251
 H        -0.686964         3.068681         0.804235
 H        -2.430887         0.782501         1.435711
 H        -2.851474         1.548681        -0.115444
 H        -2.606436        -0.960760        -1.073462
 H        -1.248701        -1.657472         1.198298
 H        -0.142269        -1.804726        -0.302558
 H        -0.088231         0.043526        -1.954265
 H        -1.407203         1.779538        -2.641274
