19
Iteration:  3684
 C        -0.187925         2.572018        -0.019331
 C        -0.794125         1.143617        -0.031851
 C        -2.397699         0.742307         0.179929
 C        -1.817833        -0.516420        -0.536151
 C        -0.809670        -1.166777         0.531570
 C        -0.101725         0.114024         0.870057
 O         0.769518         0.365765         1.608191
 C        -0.962241         0.418176        -1.433333
 O        -1.784770         1.172768        -2.340082
 H         0.907910         2.591546         0.045774
 H        -0.532945         3.109375        -0.913586
 H        -0.595788         3.052234         0.848536
 H        -2.438449         0.842831         1.339514
 H        -3.111195         1.446173        -0.397589
 H        -2.464468        -1.222828        -0.944121
 H        -1.389984        -1.599094         1.361839
 H        -0.273427        -1.981234         0.029973
 H        -0.133787         0.015391        -1.952677
 H        -1.351662         1.460875        -3.095573
