19
Iteration:  3470charge 0 multiplicity 1
 C        -0.217614         2.594585        -0.066859
 C        -0.786921         1.244262        -0.130484
 C        -2.301612         0.698493         0.222366
 C        -1.854726        -0.539421        -0.488465
 C        -0.724058        -1.128952         0.367103
 C        -0.058189         0.137293         0.811457
 O         0.630547         0.337142         1.784490
 C        -0.953214         0.415699        -1.420027
 O        -1.719440         1.184465        -2.336077
 H         0.849689         2.644975        -0.126820
 H        -0.649784         3.278688        -0.709829
 H        -0.484718         2.920537         0.952123
 H        -2.378493         0.702236         1.345089
 H        -3.183362         1.197639        -0.315147
 H        -2.681285        -1.271307        -0.963882
 H        -1.105555        -1.734974         1.252595
 H        -0.033612        -1.771285        -0.293952
 H        -0.154714        -0.089900        -1.913401
 H        -2.476972         0.736823        -2.599442
