19
Iteration:  1168
 C        -0.006185         2.555964        -0.236674
 C        -0.730033         1.194496        -0.174322
 C        -1.981995         0.740100         0.721600
 C        -1.933179        -0.437139        -0.233052
 C        -0.627096        -1.133487         0.095468
 C         0.175726         0.092125         0.458933
 O         1.058929         0.140952         1.289416
 C        -1.416689         0.514906        -1.411119
 O        -2.522186         1.203125        -1.827311
 H        -0.173799         3.143606        -1.132984
 H        -0.255564         3.217636         0.602950
 H         1.116440         2.427748        -0.282768
 H        -1.829745         0.393306         1.770073
 H        -2.863964         1.362146         0.721240
 H        -2.843095        -1.076402        -0.465749
 H        -0.738383        -1.717457         0.960144
 H        -0.257913        -1.730734        -0.599088
 H        -0.844351         0.120344        -2.219890
 H        -2.157002         2.039972        -2.059059
