19
Iteration:  1119charge 0 multiplicity 1
 C        -0.142210         2.594011         0.062820
 C        -0.796417         1.177084        -0.010282
 C        -2.112909         0.789883         0.695299
 C        -2.037033        -0.478196        -0.236562
 C        -0.778976        -1.124012         0.393459
 C         0.174924         0.110959         0.401469
 O         1.348993         0.131743         0.792195
 C        -1.408373         0.411235        -1.275399
 O        -2.263170         1.283369        -2.068195
 H         0.426080         2.879869        -0.921956
 H        -0.786635         3.473542         0.285505
 H         0.697140         2.527789         0.787155
 H        -2.019131         0.527683         1.770406
 H        -2.982049         1.494669         0.569061
 H        -2.947254        -0.986122        -0.489347
 H        -0.775402        -1.610582         1.422218
 H        -0.362002        -1.941802        -0.378597
 H        -0.697772        -0.021542        -2.060042
 H        -3.186362         1.257243        -1.624993
