19
Iteration:  3172charge 0 multiplicity 1
 C        -0.114162         2.622077        -0.081052
 C        -0.728820         1.150959        -0.029502
 C        -2.249802         0.676298         0.273764
 C        -1.788155        -0.536801        -0.589568
 C        -0.758620        -1.167396         0.338433
 C        -0.076366         0.172881         0.903086
 O         0.601275         0.437344         1.855995
 C        -1.091638         0.372730        -1.527327
 O        -1.874130         1.176934        -2.353700
 H         0.896185         2.602841        -0.521969
 H        -0.654771         3.393769        -0.649122
 H         0.009235         2.853548         0.970769
 H        -2.377393         0.475496         1.383192
 H        -2.975276         1.397189         0.036860
 H        -2.472941        -1.321703        -1.031378
 H        -1.277046        -1.817145         1.113942
 H         0.009065        -1.875215        -0.113149
 H        -0.242533        -0.165497        -2.119634
 H        -1.351025         1.162638        -3.210976
