19
Iteration:  1098
 C        -0.318149         2.626802         0.063731
 C        -0.790475         1.186545         0.084415
 C        -2.125769         0.781120         0.799792
 C        -2.006074        -0.399470        -0.164766
 C        -0.786690        -1.131194         0.401173
 C         0.099790         0.081252         0.446952
 O         1.321645         0.034725         0.506023
 C        -1.330221         0.492994        -1.210002
 O        -2.084869         1.268948        -2.101066
 H         0.595263         2.850395        -0.645738
 H        -1.172064         3.314906        -0.158677
 H         0.139046         2.886423         1.032386
 H        -2.098368         0.680970         1.921887
 H        -2.915717         1.525027         0.476901
 H        -2.813144        -1.087893        -0.204959
 H        -1.029330        -1.424307         1.453095
 H        -0.366600        -2.043804        -0.078045
 H        -0.588592        -0.003578        -1.888035
 H        -2.914020         0.799682        -2.138247
