19
Iteration:   388charge 0 multiplicity 1
 C        -0.073773         2.561834        -0.249393
 C        -0.715403         1.206027        -0.188815
 C        -1.692756         0.742480         0.955055
 C        -1.960509        -0.394288        -0.071869
 C        -0.635141        -1.338239         0.009508
 C         0.316690        -0.031257         0.153459
 O         1.421552         0.031981         0.702174
 C        -1.727277         0.575589        -1.247489
 O        -2.854960         1.462358        -1.424205
 H         0.702329         2.695030         0.492645
 H         0.280632         2.532997        -1.305899
 H        -0.829634         3.310650        -0.199487
 H        -1.338727         0.486281         2.008631
 H        -2.583700         1.412361         1.093900
 H        -2.964313        -0.917304         0.017557
 H        -0.595934        -2.042407         0.876760
 H        -0.494301        -1.828252        -0.937637
 H        -1.423556         0.216235        -2.211745
 H        -2.446725         2.370021        -1.280733
