19
Iteration:  3014charge 0 multiplicity 1
 C        -0.443889         2.751885         0.108746
 C        -0.911377         1.332005         0.048015
 C        -2.397759         0.789372         0.186436
 C        -1.903122        -0.529420        -0.470149
 C        -0.982984        -1.237426         0.597807
 C        -0.130870         0.147412         0.850279
 O         0.988608         0.232072         1.240437
 C        -0.946844         0.463343        -1.229343
 O        -1.372101         0.980518        -2.489491
 H         0.622062         2.728960         0.061973
 H        -0.817766         3.431796        -0.615156
 H        -0.688331         3.109961         1.090583
 H        -2.826113         0.659946         1.174953
 H        -3.289066         1.292290        -0.282175
 H        -2.604579        -1.118797        -1.128181
 H        -1.371576        -1.382243         1.619163
 H        -0.386342        -2.111781         0.314807
 H        -0.026631         0.009723        -1.670612
 H        -2.330284         1.380931        -2.360406
