19
Iteration:   183
 C        -0.069999         2.550205         0.265722
 C        -0.659168         1.215520         0.167744
 C        -1.867679         0.714321         1.008910
 C        -1.994127        -0.414042         0.010966
 C        -0.729461        -1.141198         0.215138
 C         0.260894         0.055611         0.059124
 O         1.460376        -0.006053        -0.200240
 C        -1.661866         0.536532        -1.140334
 O        -2.751299         1.347278        -1.575066
 H        -0.135159         2.783122         1.343709
 H         1.065493         2.583659        -0.121971
 H        -0.559938         3.356404        -0.293326
 H        -1.693494         0.510643         2.091673
 H        -2.737375         1.364532         0.893350
 H        -2.898315        -0.973026        -0.042349
 H        -0.765510        -1.570909         1.319193
 H        -0.293202        -1.948609        -0.345196
 H        -0.965393         0.276520        -2.037237
 H        -2.193479         1.962436        -2.153674
