19
Iteration:  2681
 C        -0.363327         2.736615         0.178471
 C        -0.863046         1.290097         0.072136
 C        -2.350625         0.765046         0.330413
 C        -1.909742        -0.512441        -0.420166
 C        -0.887863        -1.127881         0.439230
 C        -0.133204         0.176071         0.765847
 O         0.948493         0.224638         1.286999
 C        -1.033317         0.364514        -1.331420
 O        -1.508772         0.995792        -2.489880
 H        -1.096754         3.516543         0.025423
 H         0.246650         2.983032         1.068875
 H         0.252315         2.842022        -0.699847
 H        -2.851814         0.648236         1.327822
 H        -3.019932         1.424216        -0.298758
 H        -2.764536        -1.161011        -0.745878
 H        -1.257187        -1.692603         1.329757
 H        -0.180423        -1.826996        -0.041457
 H        -0.096364        -0.076792        -1.585575
 H        -2.238288         1.519363        -2.225771
