19
Iteration:  4461
 C        -0.310510         2.609378         0.130579
 C        -0.958450         1.262133         0.052680
 C        -2.441978         0.849298         0.122820
 C        -1.943701        -0.578598        -0.500999
 C        -0.924571        -1.084151         0.551557
 C        -0.085280         0.212038         0.883316
 O         1.003810         0.241367         1.362573
 C        -0.987919         0.381054        -1.334372
 O        -1.565640         1.080105        -2.389371
 H         0.848834         2.502093         0.322349
 H        -0.511252         3.113416        -0.868466
 H        -0.751513         3.119707         0.960775
 H        -2.875310         0.687350         1.128643
 H        -3.054945         1.291303        -0.552347
 H        -2.695746        -1.209890        -0.973745
 H        -1.524274        -1.513154         1.352508
 H        -0.122685        -1.778809         0.269323
 H        -0.058581        -0.158633        -1.714406
 H        -0.910135         1.005753        -3.028719
