19
Iteration:  3467
 C        -0.219593         2.605936        -0.082203
 C        -0.738598         1.216327        -0.118240
 C        -2.305119         0.722891         0.231569
 C        -1.862000        -0.578475        -0.503889
 C        -0.745601        -1.133657         0.365647
 C        -0.069586         0.140903         0.791356
 O         0.637483         0.351966         1.801883
 C        -0.952683         0.424737        -1.409792
 O        -1.724008         1.200652        -2.337141
 H         0.867418         2.566439        -0.111671
 H        -0.667542         3.309583        -0.759849
 H        -0.509793         2.880278         0.961445
 H        -2.495319         0.611956         1.304326
 H        -3.153793         1.128033        -0.334208
 H        -2.674961        -1.308488        -0.963091
 H        -1.033762        -1.741072         1.245753
 H        -0.034109        -1.673413        -0.289445
 H        -0.063199        -0.119360        -1.898050
 H        -2.608931         0.744804        -2.541063
