19
Iteration:  2134charge 0 multiplicity 1
 C        -0.430395         2.621375         0.174413
 C        -0.828475         1.165284         0.071148
 C        -2.406655         0.803914         0.413777
 C        -2.028187        -0.532240        -0.360532
 C        -0.872421        -1.050499         0.520601
 C         0.022587         0.152442         0.677754
 O         1.202053         0.181786         0.994653
 C        -1.110177         0.331382        -1.328962
 O        -1.664719         1.229979        -2.282998
 H        -0.017605         3.080512        -0.749355
 H        -1.345519         3.105323         0.241950
 H         0.228658         2.876531         0.967634
 H        -2.687520         0.665130         1.538486
 H        -3.026371         1.621435        -0.122409
 H        -2.844484        -1.145408        -0.781561
 H        -1.345009        -1.398283         1.437158
 H        -0.416912        -1.893337         0.069218
 H        -0.137209        -0.182663        -1.548737
 H        -1.622073         0.797207        -3.134242
