19
Iteration:  1978
 C        -0.161559         2.681476        -0.162938
 C        -0.868793         1.235843        -0.091496
 C        -2.232078         0.735039         0.504232
 C        -1.879620        -0.502801        -0.388113
 C        -0.712012        -1.252721         0.282007
 C         0.053285         0.054301         0.665865
 O         0.943560         0.241478         1.486512
 C        -1.176089         0.469860        -1.337463
 O        -2.003335         1.262656        -2.145611
 H         0.696124         2.580952         0.483892
 H         0.084690         2.856896        -1.192761
 H        -0.864766         3.389830         0.237329
 H        -2.386486         0.514589         1.671444
 H        -3.094860         1.271608         0.093920
 H        -2.725973        -1.044333        -0.837425
 H        -0.939627        -1.816214         1.157804
 H        -0.194400        -1.882655        -0.390247
 H        -0.241432         0.234736        -1.940292
 H        -2.134647         0.796819        -3.058933
