19
Iteration:  3759charge 0 multiplicity 1
 C        -0.232502         2.700374        -0.022097
 C        -0.678165         1.198470        -0.078507
 C        -2.200315         0.803896         0.343949
 C        -1.911467        -0.456097        -0.518717
 C        -0.843964        -1.098415         0.299095
 C        -0.039620         0.116803         0.830165
 O         0.654359         0.281672         1.821182
 C        -1.053486         0.306819        -1.441176
 O        -1.740350         0.998412        -2.490062
 H         0.313711         2.957529        -0.961838
 H        -1.192275         3.320066        -0.120663
 H         0.297864         2.953898         0.779691
 H        -2.397964         0.511710         1.417889
 H        -3.031785         1.502841        -0.021978
 H        -2.655653        -1.088952        -0.837311
 H        -1.264464        -1.446452         1.252600
 H        -0.053678        -1.799362        -0.047054
 H        -0.202321        -0.237997        -1.955949
 H        -1.405372         1.987792        -2.417797
