19
Iteration:  1576charge 0 multiplicity 1
 C        -0.354672         2.674118         0.252671
 C        -0.837941         1.263982         0.072038
 C        -2.259864         0.756895         0.463713
 C        -1.932909        -0.510936        -0.333004
 C        -0.876337        -1.144537         0.511932
 C         0.098460         0.022691         0.635717
 O         1.288101         0.131296         0.789596
 C        -1.127679         0.496299        -1.296149
 O        -2.046889         1.244655        -2.180369
 H        -1.109481         3.375672         0.765684
 H         0.715315         2.683012         0.588029
 H        -0.290688         3.006387        -0.738099
 H        -2.454812         0.751288         1.589329
 H        -3.061390         1.344687        -0.049334
 H        -2.662340        -1.238934        -0.715252
 H        -1.248082        -1.619763         1.453738
 H        -0.389292        -1.984319        -0.086399
 H        -0.319934         0.257473        -1.972008
 H        -2.015800         0.722788        -2.944657
