19
Iteration:  2743charge 0 multiplicity 1
 C        -0.397403         2.793486         0.268418
 C        -0.890830         1.324653         0.158177
 C        -2.370222         0.789519         0.291501
 C        -1.873952        -0.564491        -0.541353
 C        -0.991540        -1.122584         0.661467
 C        -0.102973         0.216161         0.797279
 O         1.057526         0.182061         1.206821
 C        -0.958773         0.274433        -1.494218
 O        -1.521185         1.026130        -2.496701
 H        -1.116151         3.498856         0.783644
 H         0.651196         2.938117         0.630511
 H        -0.310277         3.006034        -0.820797
 H        -2.824394         0.434962         1.263312
 H        -3.284388         1.282348        -0.055693
 H        -2.625100        -1.209114        -0.867392
 H        -1.834080        -1.291122         1.300489
 H        -0.388454        -1.959400         0.343145
 H        -0.008664        -0.082857        -1.961810
 H        -2.268590         1.524226        -2.352000
