19
Iteration:  2019
 C        -0.252313         2.487660        -0.253271
 C        -0.694568         1.122397        -0.149960
 C        -2.109551         0.737223         0.529168
 C        -1.889282        -0.445120        -0.451329
 C        -0.623268        -1.158845         0.192181
 C         0.111353         0.097026         0.683002
 O         0.770577         0.279094         1.712214
 C        -1.209684         0.440888        -1.422637
 O        -2.074642         1.327960        -2.076991
 H         0.767409         2.434033         0.049255
 H        -0.172234         2.989441        -1.269224
 H        -0.721272         3.209113         0.455124
 H        -2.016656         0.514230         1.600633
 H        -2.892686         1.437232         0.290657
 H        -2.611955        -1.222154        -0.712340
 H        -1.023540        -1.792696         0.991604
 H        -0.057039        -1.615828        -0.645491
 H        -0.542408        -0.054466        -2.151858
 H        -2.341941         1.035119        -2.945158
