19
Iteration:  1354
 C        -0.404440         2.799096         0.198561
 C        -0.843035         1.201775         0.209499
 C        -2.220702         0.734513         0.700924
 C        -2.017260        -0.540611        -0.299440
 C        -0.829800        -1.151405         0.564574
 C         0.097864         0.135415         0.554676
 O         1.298208         0.010951         0.480998
 C        -1.202506         0.423220        -1.309466
 O        -1.879270         1.263959        -2.221426
 H         0.361006         3.014978         0.844238
 H        -0.118919         3.022052        -0.827376
 H        -1.332423         3.417316         0.536754
 H        -2.637917         0.673004         1.718150
 H        -2.943038         1.413150         0.226976
 H        -2.880701        -1.181634        -0.704877
 H        -1.133391        -1.362387         1.618462
 H        -0.339531        -2.050685         0.094808
 H        -0.345683         0.075935        -1.912376
 H        -2.750604         1.362181        -1.876215
