19
Iteration:  4966
 C        -0.531212         2.698440         0.065197
 C        -0.849484         1.268272         0.170891
 C        -2.371147         0.826368         0.233814
 C        -1.970304        -0.463424        -0.496215
 C        -0.990891        -1.039067         0.577711
 C        -0.083842         0.123704         0.799806
 O         1.124848         0.095276         1.222688
 C        -0.944240         0.321350        -1.296012
 O        -1.575585         1.072438        -2.387125
 H        -1.316488         3.377594         0.283919
 H         0.215722         2.952474         0.768680
 H        -0.120115         2.984407        -0.861044
 H        -2.869852         0.740958         1.248826
 H        -2.956476         1.469233        -0.434808
 H        -2.770470        -1.182981        -0.967258
 H        -1.428268        -1.400963         1.479127
 H        -0.338726        -1.808414         0.160196
 H         0.045056        -0.150939        -1.677911
 H        -0.822333         1.511636        -2.701807
