19
Iteration:  2801
 C        -0.311874         2.715379         0.063457
 C        -0.819200         1.193154         0.033527
 C        -2.301109         0.733602         0.320496
 C        -2.026739        -0.529801        -0.501369
 C        -0.879344        -1.132268         0.426772
 C        -0.124413         0.169033         0.843135
 O         0.939304         0.330448         1.444038
 C        -1.041275         0.312359        -1.358274
 O        -1.502781         1.115442        -2.441502
 H        -0.126069         3.082486         1.053226
 H         0.632724         2.711685        -0.505492
 H        -1.052393         3.301753        -0.394395
 H        -2.705532         0.376643         1.333899
 H        -3.029591         1.258563        -0.373294
 H        -2.852530        -1.124101        -0.894753
 H        -1.318915        -1.655655         1.257408
 H        -0.290968        -1.957983         0.021828
 H        -0.187782        -0.118321        -1.808212
 H        -2.467416         1.469563        -2.332448
