19
Iteration:  1206
 C        -0.183963         2.518173        -0.362470
 C        -0.681739         1.136731        -0.143616
 C        -1.915723         0.771377         0.704421
 C        -1.885550        -0.467194        -0.265106
 C        -0.587221        -1.249165         0.089323
 C         0.200061        -0.021272         0.515003
 O         1.012112         0.174607         1.400321
 C        -1.436492         0.535771        -1.374326
 O        -2.413864         1.467391        -1.828591
 H        -1.100429         3.114114        -0.528163
 H         0.305779         2.931076         0.526055
 H         0.536166         2.488155        -1.158091
 H        -1.720626         0.678563         1.768743
 H        -2.842786         1.329250         0.477422
 H        -2.775225        -1.060774        -0.258581
 H        -0.635022        -1.965302         0.982636
 H        -0.215316        -1.749107        -0.935642
 H        -0.668168         0.271692        -2.186026
 H        -3.051517         1.018604        -2.447181
