19
Iteration:  4488charge 0 multiplicity 1
 C        -0.243839         2.620188        -0.016735
 C        -0.842359         1.229075         0.003022
 C        -2.305369         0.753601         0.212305
 C        -1.885586        -0.552362        -0.490419
 C        -0.994892        -1.161530         0.537170
 C        -0.150599         0.146815         0.757484
 O         0.866802         0.325057         1.485491
 C        -0.858054         0.413006        -1.356555
 O        -1.689249         1.139174        -2.292530
 H         0.639370         2.723904         0.486067
 H        -0.258887         2.899870        -1.034201
 H        -0.923672         3.195617         0.664528
 H        -2.805794         0.553269         1.234987
 H        -2.931461         1.263788        -0.661714
 H        -2.703561        -1.042300        -1.079803
 H        -1.555985        -1.601792         1.425631
 H        -0.281573        -2.011533         0.255724
 H         0.014617        -0.024387        -1.783913
 H        -1.141144         1.247982        -3.009800
