19
Iteration:  1029
 C        -0.259743         2.652774         0.072729
 C        -0.808420         1.238016         0.083692
 C        -2.150091         0.825721         0.745514
 C        -2.044814        -0.501009        -0.140700
 C        -0.821893        -1.147704         0.561014
 C         0.193411         0.031799         0.477646
 O         1.393347         0.062641         0.298340
 C        -1.389432         0.386475        -1.202253
 O        -2.170297         1.280439        -2.033417
 H         0.289725         2.770387         0.962438
 H         0.298289         2.916448        -0.831711
 H        -1.119910         3.407360         0.203027
 H        -2.232216         0.670805         1.808294
 H        -2.981534         1.423030         0.410747
 H        -2.965341        -1.037442        -0.377736
 H        -1.252143        -1.399934         1.547919
 H        -0.448655        -2.218123         0.189196
 H        -0.609032         0.010281        -1.877920
 H        -1.646082         2.140441        -2.142246
