19
Iteration:   886
 C        -0.135215         2.484810        -0.372144
 C        -0.653680         1.088949        -0.097284
 C        -1.928837         0.728451         0.746411
 C        -2.019840        -0.459646        -0.167571
 C        -0.612245        -1.185133         0.224595
 C         0.208954         0.054162         0.385182
 O         1.243180         0.096954         1.029435
 C        -1.497776         0.560628        -1.281152
 O        -2.603432         1.487974        -1.663112
 H        -0.152190         2.599305        -1.450872
 H        -0.669764         3.313446         0.163816
 H         1.117609         2.422723        -0.096567
 H        -1.695254         0.440004         1.772150
 H        -2.637174         1.509527         0.670344
 H        -2.850392        -1.129780        -0.453273
 H        -0.478342        -1.820619         1.115947
 H        -0.286422        -1.775771        -0.720546
 H        -0.850351         0.243075        -2.139939
 H        -2.559876         1.590669        -2.634023
