19
Iteration:  3774
 C        -0.281949         2.687350        -0.031894
 C        -0.678703         1.214799        -0.133471
 C        -2.254410         0.792854         0.283811
 C        -1.953666        -0.460137        -0.517286
 C        -0.853365        -1.171311         0.470476
 C        -0.080400         0.186950         0.822387
 O         0.702430         0.284634         1.740074
 C        -0.939975         0.369734        -1.453731
 O        -1.736903         1.000852        -2.407292
 H         0.344567         3.060433        -0.811271
 H        -1.059375         3.325708         0.196573
 H         0.383880         2.641044         0.959741
 H        -2.454387         0.673305         1.470998
 H        -2.886209         1.595465        -0.227773
 H        -2.747388        -1.092169        -1.113801
 H        -1.155965        -1.983517         1.159480
 H        -0.414966        -1.794199        -0.325775
 H        -0.145088        -0.224705        -1.855845
 H        -1.286336         1.797373        -2.719755
