19
Iteration:   672
 C        -0.023437         2.519020        -0.227216
 C        -0.708671         1.230860        -0.247102
 C        -1.793556         0.791997         0.819758
 C        -1.893566        -0.389242        -0.087934
 C        -0.661143        -1.145284         0.075395
 C         0.233907        -0.028312         0.276622
 O         1.280870        -0.010097         0.910565
 C        -1.637358         0.583843        -1.272257
 O        -2.686230         1.383238        -1.580789
 H        -0.260797         3.135558        -1.172112
 H        -0.360314         3.150828         0.686483
 H         1.038322         2.451550        -0.160793
 H        -1.582442         0.642260         1.809946
 H        -2.560234         1.504514         0.677972
 H        -2.777973        -1.019085        -0.229752
 H        -0.713143        -1.931818         0.935291
 H        -0.247030        -1.611185        -0.825950
 H        -1.229027         0.056445        -2.114549
 H        -3.498263         0.911751        -1.598588
