19
Iteration:   590charge 0 multiplicity 1
 C        -0.099433         2.551797        -0.258588
 C        -0.680621         1.134027        -0.116238
 C        -1.917247         0.679433         0.920692
 C        -2.017592        -0.457088        -0.024991
 C        -0.694537        -1.270224         0.039591
 C         0.259620         0.003870         0.278959
 O         1.411800         0.080066         0.696834
 C        -1.613141         0.538103        -1.219105
 O        -2.570218         1.595529        -1.553208
 H         0.775687         2.713653         0.332315
 H         0.073526         2.773558        -1.267032
 H        -0.926275         3.223890         0.098913
 H        -1.684185         0.543513         2.093155
 H        -2.786326         1.403820         0.875620
 H        -2.999359        -0.923754        -0.082902
 H        -0.616456        -1.927252         0.873745
 H        -0.337956        -1.900838        -0.870696
 H        -1.320884        -0.075918        -2.064338
 H        -2.962386         1.222622        -2.398906
