19
Iteration:  1785charge 0 multiplicity 1
 C        -0.056378         2.663310        -0.045520
 C        -0.684294         1.206033        -0.090235
 C        -2.133266         0.797958         0.463072
 C        -1.940451        -0.556687        -0.415277
 C        -0.676080        -1.114192         0.210906
 C         0.086691         0.106538         0.711275
 O         1.015785         0.168750         1.494232
 C        -1.369792         0.424221        -1.409716
 O        -2.272692         1.224444        -2.121756
 H        -0.429825         3.360960        -0.904984
 H        -0.406264         3.015965         0.899575
 H         0.994857         2.514825        -0.071261
 H        -2.309081         0.654736         1.541809
 H        -2.864591         1.515939         0.093393
 H        -2.756096        -1.221501        -0.684478
 H        -0.967422        -1.842533         1.052479
 H         0.019506        -1.618115        -0.571975
 H        -0.487910         0.029651        -2.027849
 H        -1.887896         0.987987        -3.036114
