19
Iteration:  4887charge 0 multiplicity 1
 C        -0.121587         2.533315         0.084210
 C        -0.802204         1.224745        -0.072252
 C        -2.290596         0.809950         0.200620
 C        -1.877906        -0.545785        -0.531242
 C        -0.756433        -1.200212         0.488131
 C        -0.115630         0.136843         0.784653
 O         0.786123         0.382587         1.687271
 C        -0.996332         0.413953        -1.457889
 O        -1.910725         1.121899        -2.367855
 H        -0.462795         3.210001         0.827401
 H         0.937223         2.458911         0.140839
 H        -0.264342         3.027580        -0.816258
 H        -2.724238         0.678973         1.148854
 H        -2.930314         1.511297        -0.421834
 H        -2.668756        -1.396829        -0.867844
 H        -1.014315        -1.808520         1.359428
 H        -0.082927        -1.915842        -0.017609
 H        -0.225738        -0.064174        -2.141612
 H        -1.528926         1.769454        -2.933212
