19
Iteration:   128
 C        -0.206071         2.573025        -0.066271
 C        -0.680874         1.140684         0.001860
 C        -1.722495         0.612904         1.055534
 C        -2.040903        -0.462332        -0.046900
 C        -0.664817        -1.224139        -0.082767
 C         0.293972        -0.005466         0.077264
 O         1.482490        -0.016113         0.246504
 C        -1.711263         0.607973        -1.110675
 O        -2.693186         1.608251        -1.352363
 H        -0.947035         3.329569        -0.385193
 H         0.530349         3.125467         0.688331
 H         0.367748         2.533900        -1.005957
 H        -1.262598         0.276067         2.010878
 H        -2.444906         1.405002         1.262702
 H        -2.916997        -1.089949        -0.172132
 H        -0.402231        -1.800538         0.923149
 H        -0.368690        -1.808692        -0.952794
 H        -1.289108         0.380916        -2.152630
 H        -3.584764         1.278773        -1.141583
