19
Iteration:  3126charge 0 multiplicity 1
 C        -0.265640         2.682143        -0.041982
 C        -0.787017         1.203814        -0.102692
 C        -2.226578         0.787977         0.209481
 C        -1.900004        -0.522700        -0.504237
 C        -0.787504        -1.173586         0.378467
 C        -0.052047         0.084505         0.812853
 O         0.678993         0.340779         1.771679
 C        -0.990892         0.365765        -1.367268
 O        -1.725348         1.068819        -2.366826
 H         0.255367         2.773868        -0.998538
 H        -1.095967         3.372953        -0.336352
 H         0.308730         3.033515         0.687263
 H        -2.718060         0.771928         1.202285
 H        -2.989956         1.248565        -0.416182
 H        -2.688452        -1.100788        -0.863184
 H        -1.061780        -1.903980         1.166362
 H        -0.046275        -1.734959        -0.281743
 H         0.020939        -0.123396        -1.733154
 H        -1.607925         1.982641        -2.174824
