19
Iteration:  2667
 C        -0.326524         2.579332         0.079409
 C        -0.867798         1.190793         0.089216
 C        -2.283007         0.718323         0.360467
 C        -1.962457        -0.505353        -0.546892
 C        -0.895877        -1.059015         0.504400
 C        -0.123752         0.182233         0.857393
 O         0.976861         0.289754         1.385914
 C        -1.041421         0.423157        -1.387165
 O        -1.580732         1.059940        -2.509568
 H        -1.266322         3.163967        -0.096894
 H         0.120545         2.929823         1.022692
 H         0.468059         2.769459        -0.639994
 H        -2.389193         0.588661         1.562272
 H        -3.138604         1.342042        -0.125931
 H        -2.527681        -1.170885        -1.123861
 H        -1.434655        -1.515144         1.349008
 H        -0.158898        -1.743947         0.034163
 H        -0.156888        -0.071367        -1.777578
 H        -2.310806         1.768525        -2.381219
