19
Iteration:  1072
 C        -0.421749         2.762860         0.081107
 C        -0.814562         1.244136         0.169821
 C        -2.197768         0.855239         0.776365
 C        -2.077085        -0.453761        -0.131929
 C        -0.901624        -1.253936         0.521794
 C         0.224358         0.044665         0.488265
 O         1.413327        -0.020253         0.258086
 C        -1.291222         0.487992        -1.143795
 O        -2.015305         1.288574        -2.041889
 H         0.602771         2.882371        -0.003715
 H        -0.881189         3.123023        -0.837257
 H        -0.718870         3.442325         0.955137
 H        -2.166271         0.837705         1.835694
 H        -2.907853         1.581749         0.454539
 H        -2.877996        -1.194464        -0.393758
 H        -1.092975        -1.772576         1.501529
 H        -0.363017        -2.117200        -0.186492
 H        -0.524220        -0.006613        -1.802192
 H        -2.147294         0.697022        -2.812113
