19
Iteration:    64charge 0 multiplicity 1
 C         0.017346         2.559024        -0.206260
 C        -0.626909         1.185694        -0.202751
 C        -1.668729         0.594619         1.020835
 C        -1.947172        -0.468417        -0.050017
 C        -0.621651        -1.189665        -0.261920
 C         0.278381        -0.008083        -0.007300
 O         1.405758        -0.000731         0.522269
 C        -1.765232         0.675625        -1.106900
 O        -2.966757         1.479009        -1.098644
 H         0.745949         2.573470        -0.996504
 H        -0.718033         3.426009        -0.382476
 H         0.411455         2.590390         0.786172
 H        -1.306766         0.358431         1.998325
 H        -2.461630         1.309199         1.130253
 H        -2.879438        -0.994333         0.039689
 H        -0.487830        -2.087747         0.498448
 H        -0.488458        -1.746536        -1.170325
 H        -1.575895         0.395766        -2.154225
 H        -2.745481         2.348338        -1.424866
