19
Iteration:  4836
 C        -0.226306         2.608449        -0.190360
 C        -0.729578         1.208095        -0.084445
 C        -2.148776         0.753649         0.406437
 C        -1.857699        -0.463840        -0.535890
 C        -0.766373        -1.176723         0.358063
 C        -0.096745         0.045936         0.847230
 O         0.612049         0.315514         1.801254
 C        -1.025559         0.456972        -1.399417
 O        -1.804468         1.104994        -2.399841
 H         0.282110         3.055024         0.707097
 H         0.444887         2.764643        -1.098402
 H        -1.186810         3.289609        -0.338546
 H        -2.291542         0.523499         1.551638
 H        -2.971979         1.453701        -0.011482
 H        -2.558926        -1.153050        -0.962904
 H        -1.196518        -1.757454         1.186495
 H        -0.227372        -1.915573        -0.266805
 H        -0.223340        -0.076963        -1.909210
 H        -1.265791         1.908700        -2.753871
