19
Iteration:  3827
 C        -0.253897         2.610735         0.080415
 C        -0.829802         1.207498        -0.036982
 C        -2.494410         0.703699         0.112441
 C        -1.905734        -0.543589        -0.523718
 C        -0.991852        -1.075048         0.595467
 C        -0.131017         0.208059         0.874842
 O         0.961407         0.301052         1.426687
 C        -0.933175         0.436305        -1.300247
 O        -1.601476         1.108531        -2.395376
 H         0.364901         2.903489        -0.732000
 H        -0.976689         3.320465         0.266428
 H         0.389871         2.486733         0.916185
 H        -2.589701         0.648835         1.314914
 H        -3.327816         1.221390        -0.466971
 H        -2.697686        -1.309081        -0.797453
 H        -1.770792        -1.652498         1.188567
 H        -0.291369        -1.870795         0.253368
 H         0.067802         0.005048        -1.648179
 H        -0.923041         1.140166        -3.089669
