19
Iteration:   699
 C        -0.081907         2.616248        -0.099587
 C        -0.648373         1.200250        -0.053217
 C        -1.861170         0.797710         0.904231
 C        -2.036784        -0.396170        -0.045847
 C        -0.760101        -1.295301         0.168937
 C         0.225336        -0.008495         0.297844
 O         1.371922         0.066657         0.647075
 C        -1.589078         0.523798        -1.233238
 O        -2.552193         1.398261        -1.784750
 H        -0.937082         3.194637        -0.436451
 H         0.318183         3.044524         0.780145
 H         0.665919         2.755662        -0.950267
 H        -1.685045         0.370287         1.961088
 H        -2.490692         1.714940         0.785936
 H        -2.992145        -0.889181        -0.271865
 H        -0.699632        -1.695000         1.119060
 H        -0.417559        -2.028332        -0.570872
 H        -1.032921        -0.074977        -2.045538
 H        -3.296346         0.929078        -2.115058
