19
Iteration:  2556charge 0 multiplicity 1
 C        -0.220691         2.603412         0.027605
 C        -0.808509         1.217551        -0.190217
 C        -2.181381         0.791134         0.317699
 C        -1.964947        -0.480616        -0.416780
 C        -0.746139        -1.171149         0.344293
 C        -0.064829         0.153625         0.767292
 O         0.792719         0.310358         1.628797
 C        -1.056303         0.398660        -1.405502
 O        -1.780675         1.081700        -2.392295
 H         0.349021         2.960230        -0.840250
 H        -0.976034         3.339641         0.217967
 H         0.505649         2.492869         0.883563
 H        -2.250506         0.489296         1.507190
 H        -3.146941         1.446353         0.284942
 H        -2.643291        -1.157519        -0.836578
 H        -1.104814        -1.689563         1.231791
 H        -0.178013        -1.902492        -0.293933
 H        -0.182598         0.220485        -2.009752
 H        -2.528213         1.390195        -1.932915
