19
Iteration:  2391charge 0 multiplicity 1
 C        -0.345205         2.589749         0.120749
 C        -0.886151         1.224045         0.122207
 C        -2.325349         0.839576         0.275356
 C        -1.886023        -0.514183        -0.405126
 C        -0.866687        -1.098843         0.459737
 C        -0.045702         0.139126         0.708953
 O         1.020830         0.232558         1.265699
 C        -1.020966         0.458181        -1.350550
 O        -1.730237         1.116951        -2.367916
 H         0.034788         2.814125         1.115660
 H         0.618933         2.598763        -0.402148
 H        -0.949302         3.479553        -0.137191
 H        -2.720173         0.661158         1.379092
 H        -3.045892         1.457797        -0.365135
 H        -2.456505        -1.274212        -0.857234
 H        -1.283100        -1.603219         1.375739
 H        -0.142985        -1.870270         0.028895
 H        -0.121849        -0.020108        -1.820402
 H        -2.539701         0.531385        -2.531011
