19
Iteration:  2338charge 0 multiplicity 1
 C        -0.290915         2.480657        -0.103109
 C        -0.789604         1.154044        -0.040098
 C        -2.119177         0.754134         0.486384
 C        -1.896281        -0.487701        -0.419840
 C        -0.708632        -1.250008         0.354236
 C        -0.004239         0.136296         0.694760
 O         0.798152         0.299980         1.590204
 C        -1.097658         0.525015        -1.473891
 O        -1.941557         1.272746        -2.267212
 H        -0.800206         3.286650         0.477000
 H         0.763326         2.615334         0.189419
 H        -0.389890         2.851301        -1.172965
 H        -2.217368         0.553273         1.456601
 H        -2.799572         1.533542         0.094543
 H        -2.640408        -1.103200        -0.942013
 H        -1.097514        -1.538387         1.375819
 H         0.018862        -2.087936         0.009163
 H        -0.254696         0.019965        -2.059451
 H        -1.894837         0.976516        -3.233058
