19
Iteration:   724
 C        -0.215486         2.517537        -0.069473
 C        -0.831141         1.199163        -0.009774
 C        -2.007946         0.812610         0.919460
 C        -2.079904        -0.457218         0.012014
 C        -0.775944        -1.155555         0.322341
 C         0.200386         0.076587         0.331733
 O         1.438500         0.004817         0.365146
 C        -1.462110         0.491307        -1.194780
 O        -2.339535         1.440157        -1.816905
 H        -0.806457         3.289694         0.361131
 H         0.733110         2.493324         0.435695
 H         0.020150         2.809143        -1.104237
 H        -1.671027         0.433571         1.987284
 H        -2.786758         1.596704         0.874792
 H        -2.959144        -1.090281        -0.200841
 H        -0.670964        -1.630005         1.331527
 H        -0.381797        -1.871671        -0.440020
 H        -0.691488         0.038459        -1.883718
 H        -2.779785         1.016466        -2.557381
