19
Iteration:   333
 C         0.085881         2.523891        -0.267159
 C        -0.682886         1.215914        -0.108274
 C        -1.741522         0.735235         0.949705
 C        -1.942619        -0.474977        -0.078873
 C        -0.675778        -1.241563        -0.114574
 C         0.253048        -0.028704         0.159712
 O         1.382387         0.096885         0.606157
 C        -1.708165         0.613979        -1.115348
 O        -2.906738         1.404835        -1.362178
 H        -0.594844         3.362412        -0.376206
 H         0.912607         2.620770         0.518096
 H         0.638109         2.286902        -1.161432
 H        -1.346899         0.535331         2.023872
 H        -2.770517         1.213525         0.979074
 H        -2.904405        -1.123850        -0.059684
 H        -0.569631        -1.990545         0.681376
 H        -0.565512        -1.784160        -1.052545
 H        -1.297906         0.387572        -2.066957
 H        -2.658504         2.352771        -1.163435
