19
Iteration:  2463charge 0 multiplicity 1
 C        -0.500361         2.648167         0.126779
 C        -0.884118         1.158219         0.077349
 C        -2.388012         0.856408         0.300151
 C        -1.956104        -0.466750        -0.350662
 C        -0.935618        -1.216323         0.515825
 C        -0.009495         0.127302         0.819427
 O         1.155185         0.244266         1.127130
 C        -1.051114         0.388062        -1.272500
 O        -1.506253         1.143860        -2.427643
 H         0.428756         2.925970         0.688173
 H        -0.317573         3.030379        -0.924838
 H        -1.253442         3.286547         0.588778
 H        -2.901478         0.924689         1.233742
 H        -2.864734         1.542996        -0.329082
 H        -2.724906        -1.190581        -0.863180
 H        -1.305570        -1.836233         1.355843
 H        -0.612432        -1.955518        -0.199119
 H        -0.043432        -0.005057        -1.635802
 H        -2.543411         1.137651        -2.377224
