19
Iteration:     6
 C        -0.097179         2.543141         0.037615
 C        -0.698529         1.197558         0.015543
 C        -1.713783         0.622931         1.074696
 C        -2.021031        -0.494625        -0.004829
 C        -0.639691        -1.209107        -0.014885
 C         0.261685        -0.036396        -0.009227
 O         1.508162        -0.007989         0.017233
 C        -1.718174         0.674873        -1.037883
 O        -2.765601         1.536164        -1.375882
 H         0.372069         2.768817         1.012317
 H         0.538220         2.776648        -0.845835
 H        -0.889622         3.336874        -0.010720
 H        -1.339044         0.194710         2.036014
 H        -2.521494         1.374921         1.205355
 H        -3.018650        -0.965070        -0.182787
 H        -0.468582        -1.871980         0.863305
 H        -0.659957        -1.732259        -1.005942
 H        -1.388177         0.419373        -2.088485
 H        -3.461126         1.679746        -0.672081
