19
Iteration:  4816charge 0 multiplicity 1
 C        -0.324766         2.641524        -0.132527
 C        -0.725308         1.249499        -0.056840
 C        -2.194170         0.805242         0.371071
 C        -1.969245        -0.533374        -0.411255
 C        -0.792870        -1.229644         0.322111
 C        -0.003884         0.199623         0.772573
 O         0.666045         0.235176         1.806465
 C        -1.044965         0.337563        -1.411977
 O        -1.714141         1.121804        -2.454417
 H         0.453324         2.940416         0.642981
 H         0.177898         2.972221        -1.102253
 H        -1.160817         3.492754        -0.005677
 H        -2.470450         0.893044         1.398649
 H        -2.877014         1.410289        -0.171503
 H        -2.825715        -0.976808        -0.713625
 H        -0.972926        -1.917809         1.218308
 H        -0.141386        -1.890177        -0.351928
 H        -0.130228        -0.070947        -1.908733
 H        -1.105920         1.795994        -2.732766
