19
Iteration:  3948
 C        -0.186153         2.553675         0.075878
 C        -0.803542         1.217641         0.011446
 C        -2.289391         0.757134         0.169184
 C        -1.904959        -0.500365        -0.508801
 C        -0.839900        -1.094571         0.511440
 C        -0.175187         0.164684         0.838913
 O         0.781870         0.356469         1.545102
 C        -0.974615         0.351883        -1.400911
 O        -1.748891         1.107561        -2.401616
 H         0.799103         2.626692        -0.435571
 H        -0.851967         3.294522        -0.294806
 H        -0.033780         2.693966         1.223356
 H        -2.839227         0.876841         1.116744
 H        -2.814241         1.217284        -0.633634
 H        -2.480035        -1.359880        -1.093815
 H        -1.448563        -1.738148         1.255345
 H        -0.093126        -1.873854         0.166607
 H        -0.038210        -0.186377        -1.799839
 H        -1.127610         1.641196        -2.827786
