19
Iteration:  4580
 C        -0.124193         2.555875        -0.024256
 C        -0.769732         1.207076        -0.030124
 C        -2.197602         0.758962         0.304530
 C        -1.831137        -0.515636        -0.580726
 C        -0.844971        -1.109918         0.396188
 C        -0.102072         0.164867         0.779887
 O         0.654693         0.358511         1.777491
 C        -0.979250         0.424933        -1.406202
 O        -1.908136         1.036295        -2.438912
 H         0.963217         2.420479         0.344024
 H        -0.121083         3.002235        -1.029780
 H        -0.494794         3.098799         0.811481
 H        -2.480974         0.549106         1.248400
 H        -2.740947         1.402374        -0.237080
 H        -2.572898        -1.179213        -1.034000
 H        -1.160606        -1.490554         1.338122
 H        -0.140179        -1.738659        -0.044227
 H        -0.065067        -0.031355        -1.810659
 H        -1.438055         1.827965        -2.933880
