19
Iteration:  1389charge 0 multiplicity 1
 C        -0.370248         2.593865         0.030792
 C        -0.812689         1.203517         0.079093
 C        -2.281692         0.780770         0.693054
 C        -2.027178        -0.494238        -0.272897
 C        -0.787059        -1.212638         0.331400
 C         0.126522         0.074146         0.487813
 O         1.334086         0.131989         0.828746
 C        -1.206909         0.520383        -1.269665
 O        -2.059101         1.229192        -2.125662
 H         0.671186         2.559722         0.389604
 H        -0.369858         3.170259        -0.926143
 H        -0.932336         3.292132         0.724043
 H        -2.371829         0.784947         1.800510
 H        -2.920756         1.584722         0.256794
 H        -2.831486        -1.135904        -0.770956
 H        -1.007922        -1.739623         1.246785
 H        -0.270856        -1.910662        -0.215560
 H        -0.408132        -0.051643        -1.726460
 H        -2.116632         2.083469        -1.668552
