19
Iteration:  1339
 C        -0.467452         2.658278         0.259002
 C        -0.868016         1.269874         0.121658
 C        -2.305106         0.791260         0.611479
 C        -1.981895        -0.455537        -0.246054
 C        -0.861296        -1.121966         0.590930
 C         0.145577         0.024373         0.493919
 O         1.358406         0.052397         0.426865
 C        -1.207147         0.490995        -1.207811
 O        -1.874718         1.233757        -2.209593
 H         0.287857         2.761109         1.130864
 H         0.107317         3.053829        -0.598581
 H        -1.292327         3.295308         0.456828
 H        -2.221054         0.535596         1.665472
 H        -3.120120         1.444684         0.273550
 H        -2.738582        -1.115020        -0.594628
 H        -1.260736        -1.254443         1.640230
 H        -0.367993        -2.146358         0.270818
 H        -0.249755        -0.046384        -1.559787
 H        -2.798648         1.018460        -2.340004
