19
Iteration:  1022charge 0 multiplicity 1
 C        -0.215059         2.646403         0.046086
 C        -0.774990         1.174148         0.033177
 C        -2.151286         0.782182         0.736580
 C        -2.041436        -0.419610        -0.117754
 C        -0.842580        -1.219105         0.534091
 C         0.177825         0.036486         0.507459
 O         1.398060         0.095552         0.342674
 C        -1.377008         0.496262        -1.192121
 O        -2.248607         1.251303        -2.059763
 H         0.339311         2.781495         1.087189
 H         0.632048         2.925251        -0.638901
 H        -1.066432         3.342378        -0.016243
 H        -2.246510         0.683494         1.866755
 H        -3.051447         1.289480         0.252863
 H        -2.818491        -1.111413        -0.421083
 H        -1.092249        -1.372926         1.589392
 H        -0.412396        -2.046924         0.118363
 H        -0.653529        -0.140279        -1.771435
 H        -1.801603         2.145354        -1.863162
