19
Iteration:  1301charge 0 multiplicity 1
 C        -0.240583         2.718500         0.334997
 C        -0.836623         1.274679         0.117391
 C        -2.228011         0.851566         0.551968
 C        -2.001527        -0.486404        -0.273659
 C        -0.790024        -1.203921         0.466814
 C         0.100484         0.100894         0.529521
 O         1.307050         0.155125         0.558732
 C        -1.292893         0.381462        -1.289029
 O        -2.097394         1.156359        -2.112819
 H        -0.187795         2.841019         1.385996
 H         0.786933         2.717221        -0.051341
 H        -0.771148         3.594384        -0.196126
 H        -2.265311         0.700982         1.627673
 H        -3.145730         1.423773         0.277417
 H        -2.868197        -1.151801        -0.601907
 H        -1.145332        -1.550339         1.402625
 H        -0.349511        -1.957532        -0.047607
 H        -0.609653        -0.117760        -1.908026
 H        -1.800891         0.889052        -2.967353
