19
Iteration:  4578charge 0 multiplicity 1
 C        -0.114621         2.556702        -0.026274
 C        -0.770102         1.221528        -0.041552
 C        -2.186338         0.755849         0.294945
 C        -1.853446        -0.507488        -0.560302
 C        -0.844745        -1.112540         0.368676
 C        -0.104412         0.156356         0.808308
 O         0.646186         0.356065         1.768471
 C        -0.955541         0.426772        -1.383905
 O        -1.905040         1.023378        -2.439806
 H         0.902472         2.483356         0.307942
 H        -0.118902         3.003805        -0.995911
 H        -0.554336         3.145103         0.752747
 H        -2.439446         0.499355         1.335656
 H        -2.769816         1.498706        -0.238495
 H        -2.518526        -1.184547        -1.045829
 H        -1.164028        -1.508656         1.317793
 H        -0.142801        -1.706147        -0.184473
 H        -0.103086        -0.039597        -1.829840
 H        -1.492391         1.782316        -2.855273
