19
Iteration:   634
 C         0.041446         2.501960        -0.409284
 C        -0.645665         1.150729        -0.197685
 C        -1.801931         0.677454         0.870321
 C        -1.891741        -0.400234        -0.155846
 C        -0.620839        -1.305531        -0.027827
 C         0.234545         0.008028         0.262939
 O         1.204043         0.149996         0.993907
 C        -1.652007         0.626588        -1.198241
 O        -2.740062         1.512950        -1.450391
 H         0.861210         2.227087        -1.036926
 H        -0.481496         3.271864        -0.863809
 H         0.574312         2.761222         0.552103
 H        -1.596018         0.324570         2.020944
 H        -2.749824         1.304279         0.765029
 H        -2.777966        -1.047124        -0.222246
 H        -0.691394        -2.002820         0.757526
 H        -0.438170        -1.853174        -1.028218
 H        -1.099610         0.313004        -2.115317
 H        -3.477141         1.012883        -1.915434
