19
Iteration:  3167charge 0 multiplicity 1
 C        -0.151780         2.588367        -0.077604
 C        -0.705695         1.178600        -0.080123
 C        -2.215824         0.674099         0.288611
 C        -1.804076        -0.542963        -0.578935
 C        -0.760635        -1.138758         0.386779
 C        -0.090737         0.160436         0.881578
 O         0.576882         0.423509         1.836394
 C        -1.094120         0.422729        -1.524672
 O        -1.834431         1.153110        -2.331523
 H         0.790710         2.428315        -0.628637
 H        -0.728150         3.345614        -0.613967
 H         0.152717         2.861932         0.980356
 H        -2.255276         0.216044         1.282741
 H        -3.031257         1.384567        -0.101671
 H        -2.463683        -1.325647        -0.878946
 H        -1.234974        -1.786961         1.088941
 H        -0.006980        -1.698848        -0.147228
 H        -0.378444        -0.076593        -2.104404
 H        -1.341778         1.338477        -3.152489
