19
Iteration:  1644charge 0 multiplicity 1
 C        -0.391215         2.547363         0.210241
 C        -0.875741         1.194729         0.133828
 C        -2.281973         0.822624         0.579940
 C        -1.985767        -0.448967        -0.279903
 C        -0.847611        -1.113477         0.464449
 C         0.025722         0.083361         0.588597
 O         1.239402         0.180588         0.762050
 C        -1.155768         0.435932        -1.294930
 O        -1.852010         1.129169        -2.308532
 H         0.414046         2.876987         1.013241
 H         0.127620         2.851041        -0.726908
 H        -1.108742         3.408258         0.341090
 H        -2.418317         0.706015         1.773330
 H        -3.162038         1.387393         0.157481
 H        -2.777626        -1.107802        -0.586540
 H        -1.190459        -1.427765         1.476031
 H        -0.370625        -1.893474        -0.130981
 H        -0.292108        -0.153296        -1.764014
 H        -1.740278         2.141922        -2.325742
