19
Iteration:  3751
 C        -0.232034         2.651217        -0.065061
 C        -0.740059         1.200712        -0.059678
 C        -2.116926         0.822948         0.380604
 C        -1.919606        -0.518253        -0.491834
 C        -0.770111        -1.085757         0.319671
 C        -0.090413         0.137900         0.833771
 O         0.628164         0.265244         1.817659
 C        -1.041904         0.393171        -1.460215
 O        -1.741999         1.022210        -2.516284
 H         0.371029         2.776248        -0.950352
 H        -1.104786         3.218707        -0.197476
 H         0.302161         3.048675         0.857525
 H        -2.376302         0.700691         1.558078
 H        -2.979420         1.283093        -0.224535
 H        -2.671223        -1.276412        -0.865176
 H        -1.205435        -1.465770         1.279804
 H        -0.364142        -2.011643        -0.107192
 H        -0.186170        -0.121508        -1.862888
 H        -1.513205         2.033472        -2.458857
