19
Iteration:   372
 C         0.072400         2.498657        -0.348601
 C        -0.615195         1.151453        -0.155938
 C        -1.688987         0.649049         0.955021
 C        -1.977313        -0.482669        -0.075273
 C        -0.656866        -1.193522        -0.061868
 C         0.259621        -0.037710         0.186878
 O         1.354441         0.117613         0.720431
 C        -1.777885         0.633830        -1.150471
 O        -2.920205         1.456079        -1.428055
 H         0.378139         2.903132         0.660982
 H         1.046237         2.480724        -0.817948
 H        -0.550492         3.375309        -0.803579
 H        -1.252681         0.373117         1.880816
 H        -2.522863         1.311029         1.032820
 H        -2.839132        -1.126061        -0.042329
 H        -0.590192        -1.906424         0.777678
 H        -0.335199        -1.780597        -0.995050
 H        -1.370719         0.208950        -2.143009
 H        -2.794688         2.364870        -1.097517
