19
Iteration:  3927
 C        -0.290459         2.630015         0.108195
 C        -0.880395         1.212296        -0.025183
 C        -2.383454         0.819325         0.179340
 C        -1.967631        -0.503090        -0.570735
 C        -0.962896        -1.168356         0.536931
 C        -0.115072         0.167802         0.847060
 O         0.916431         0.319929         1.480610
 C        -0.913745         0.422338        -1.397334
 O        -1.585079         0.988946        -2.383723
 H         0.451351         2.853531        -0.609507
 H        -1.044496         3.296660        -0.047505
 H         0.152481         2.748916         1.133058
 H        -2.603251         0.633327         1.301193
 H        -3.102623         1.577504        -0.068107
 H        -2.506319        -1.310286        -1.230738
 H        -1.449903        -1.432238         1.531606
 H        -0.376249        -2.038216         0.126131
 H         0.096319        -0.070276        -1.660813
 H        -1.230803         1.844097        -2.834120
