19
Iteration:  2754charge 0 multiplicity 1
 C        -0.398843         2.756168         0.183018
 C        -0.904516         1.270617         0.110888
 C        -2.408827         0.721161         0.226368
 C        -1.858246        -0.498002        -0.477815
 C        -0.995103        -1.068576         0.580434
 C        -0.080525         0.188556         0.774015
 O         1.038125         0.179217         1.234900
 C        -0.959228         0.369195        -1.364470
 O        -1.529906         1.021811        -2.479723
 H        -0.973396         3.344658         0.963027
 H         0.617039         2.589246         0.611629
 H        -0.456749         3.376356        -0.736732
 H        -2.636815         0.630514         1.306275
 H        -3.026145         1.362581        -0.396406
 H        -2.445970        -1.232660        -0.946206
 H        -1.544156        -1.390402         1.478571
 H        -0.410119        -1.969426         0.435094
 H        -0.172577        -0.280296        -1.797828
 H        -2.280144         1.492212        -2.072379
