19
Iteration:  2006charge 0 multiplicity 1
 C        -0.119693         2.595416        -0.260784
 C        -0.702668         1.162303        -0.082921
 C        -2.120638         0.649497         0.569780
 C        -1.888291        -0.554295        -0.385364
 C        -0.601673        -1.116340         0.249837
 C         0.011878         0.136804         0.716432
 O         0.783704         0.195745         1.643940
 C        -1.267963         0.425970        -1.455768
 O        -2.094693         1.398919        -2.187709
 H         0.946078         2.785472         0.146238
 H        -0.345494         2.760707        -1.372393
 H        -0.865719         3.279002         0.273987
 H        -2.211228         0.441787         1.582627
 H        -2.907134         1.350907         0.272295
 H        -2.757763        -1.136791        -0.691606
 H        -0.611798        -1.874959         1.119553
 H         0.121541        -1.771828        -0.381620
 H        -0.404860         0.115776        -2.039483
 H        -2.207073         0.964638        -3.075091
