19
Iteration:  2226
 C        -0.258904         2.582774         0.139064
 C        -0.843805         1.191862        -0.052710
 C        -2.227682         0.796989         0.418662
 C        -1.965643        -0.453485        -0.335147
 C        -0.823734        -1.131035         0.436877
 C         0.025593         0.107813         0.642261
 O         1.035629         0.266979         1.288537
 C        -1.083664         0.423540        -1.343346
 O        -1.956099         1.084758        -2.384531
 H        -0.353269         3.193235        -0.772745
 H        -1.019426         3.020214         0.869503
 H         0.810697         2.430597         0.452471
 H        -2.468354         0.692023         1.442447
 H        -2.886057         1.321290        -0.207314
 H        -2.758088        -0.997853        -0.775815
 H        -1.071024        -1.613574         1.443997
 H        -0.196007        -1.949566        -0.114699
 H        -0.165044         0.069012        -1.882800
 H        -1.511237         1.994554        -2.461733
