19
Iteration:  2259
 C        -0.091952         2.695944         0.016657
 C        -0.741370         1.207804        -0.101807
 C        -2.143316         0.708236         0.446777
 C        -1.944759        -0.512493        -0.471597
 C        -0.813222        -1.207273         0.356140
 C         0.019685         0.121731         0.695697
 O         0.872100         0.324243         1.534928
 C        -1.135874         0.389660        -1.427529
 O        -2.078621         1.103369        -2.339933
 H        -0.706542         3.417299        -0.522234
 H        -0.017935         3.024617         1.111873
 H         0.981774         2.783927        -0.319726
 H        -2.334070         0.448159         1.460612
 H        -2.933978         1.341053         0.144585
 H        -2.689187        -1.133613        -0.907851
 H        -1.130025        -1.671533         1.339709
 H        -0.068844        -1.873006        -0.230747
 H        -0.231720        -0.073195        -1.955579
 H        -1.843625         2.060352        -2.083264
