19
Iteration:  2638charge 0 multiplicity 1
 C        -0.276033         2.639797        -0.021594
 C        -0.816281         1.223074        -0.052555
 C        -2.291069         0.725010         0.299011
 C        -1.916399        -0.579119        -0.415357
 C        -0.857644        -1.192087         0.476894
 C         0.004312         0.107498         0.703149
 O         0.837359         0.328596         1.555864
 C        -1.038100         0.400389        -1.420975
 O        -1.664670         1.192900        -2.360085
 H        -0.908178         3.267239        -0.641884
 H        -0.278759         3.132624         0.976711
 H         0.719789         2.770632        -0.420777
 H        -2.528179         0.823593         1.294983
 H        -3.035365         1.130980        -0.341578
 H        -2.595356        -1.266077        -1.014373
 H        -1.223059        -1.570223         1.470080
 H        -0.441252        -2.098804         0.021950
 H        -0.179349        -0.062513        -1.900088
 H        -2.467476         1.648302        -2.066357
