19
Iteration:   824
 C        -0.124245         2.580032         0.149532
 C        -0.721761         1.233069         0.053372
 C        -2.070721         0.912313         0.838133
 C        -2.004309        -0.354117        -0.091507
 C        -0.773633        -1.117833         0.333304
 C         0.197264         0.027589         0.367248
 O         1.414362         0.001372         0.356880
 C        -1.450753         0.472653        -1.197849
 O        -2.468435         1.118797        -1.995442
 H         0.969758         2.559168         0.107334
 H        -0.415917         3.337785        -0.587180
 H        -0.507142         2.986431         1.009758
 H        -1.957987         0.895304         2.017024
 H        -2.889803         1.648318         0.653712
 H        -2.785498        -1.072160        -0.272324
 H        -0.856717        -1.420090         1.388614
 H        -0.614502        -1.975712        -0.282398
 H        -0.760594        -0.014680        -1.929396
 H        -2.415585         2.088087        -2.012469
