19
Iteration:   914
 C        -0.083648         2.690229        -0.473443
 C        -0.642792         1.188105        -0.175066
 C        -1.841172         0.721299         0.730680
 C        -1.975307        -0.517123        -0.171772
 C        -0.672887        -1.324334         0.044366
 C         0.198696         0.056670         0.440914
 O         1.156904         0.110594         1.182807
 C        -1.543880         0.467027        -1.278012
 O        -2.473953         1.489936        -1.579562
 H        -0.770127         3.102485        -1.264604
 H         0.047035         3.350933         0.385026
 H         0.826244         2.565136        -0.876337
 H        -1.689147         0.552098         1.823823
 H        -2.746134         1.389761         0.602708
 H        -2.937267        -1.053026        -0.353763
 H        -0.762986        -2.040792         0.920787
 H        -0.322435        -1.861787        -0.813471
 H        -1.041393         0.001385        -2.139750
 H        -3.276980         1.023728        -2.000565
