19
Iteration:   491charge 0 multiplicity 1
 C        -0.061926         2.578408         0.189946
 C        -0.727012         1.246445         0.115576
 C        -2.055789         0.761639         0.920198
 C        -2.067777        -0.454439         0.036162
 C        -0.771667        -1.197955         0.421800
 C         0.202253         0.066464         0.233133
 O         1.335684         0.145811        -0.149143
 C        -1.492904         0.399594        -1.083569
 O        -2.351857         1.391199        -1.782610
 H        -0.526764         3.433145        -0.337340
 H        -0.103704         2.695127         1.275157
 H         1.020869         2.384189        -0.085064
 H        -1.892311         0.633880         2.067978
 H        -2.929683         1.374114         0.624411
 H        -2.983116        -0.955995        -0.206797
 H        -0.832594        -1.526794         1.456581
 H        -0.546711        -2.057801        -0.290294
 H        -0.947339        -0.202050        -1.790625
 H        -2.776520         0.850911        -2.507560
