19
Iteration:  1860
 C        -0.406153         2.604742         0.057674
 C        -0.900423         1.210202         0.096177
 C        -2.353943         0.774030         0.498678
 C        -2.014527        -0.549204        -0.294234
 C        -0.783351        -1.096247         0.479448
 C         0.032616         0.140018         0.639099
 O         1.175991         0.121598         0.912570
 C        -1.152704         0.400470        -1.234855
 O        -1.750977         1.312365        -2.244835
 H        -1.161995         3.372456         0.540001
 H         0.506667         2.552858         0.636699
 H        -0.316191         2.917352        -0.971209
 H        -2.648270         0.836753         1.474280
 H        -2.996040         1.406793        -0.063381
 H        -2.718753        -1.252530        -0.771342
 H        -1.042175        -1.374923         1.548917
 H        -0.226411        -1.935377        -0.018392
 H        -0.303263        -0.190444        -1.573491
 H        -1.421267         0.932246        -3.066035
