19
Iteration:  3491
 C        -0.286256         2.661038         0.022023
 C        -0.772242         1.236949        -0.012442
 C        -2.241689         0.839446         0.363917
 C        -1.816463        -0.584662        -0.551767
 C        -0.773357        -1.163083         0.378302
 C        -0.101106         0.168680         0.809751
 O         0.662006         0.300719         1.693346
 C        -0.989488         0.408465        -1.432262
 O        -1.740921         1.112961        -2.442546
 H         0.745624         2.539060        -0.238658
 H        -0.753431         3.298339        -0.628517
 H        -0.294919         3.044366         1.054364
 H        -2.553108         0.559413         1.386942
 H        -3.023290         1.375976        -0.244557
 H        -2.660914        -1.320070        -1.046862
 H        -1.179718        -1.645774         1.320060
 H         0.037793        -1.808254        -0.100994
 H        -0.025649        -0.011734        -1.803650
 H        -1.745455         0.568903        -3.299484
