19
Iteration:  4879charge 0 multiplicity 1
 C        -0.072916         2.595619         0.001455
 C        -0.743998         1.161149        -0.025955
 C        -2.310335         0.811706         0.139290
 C        -1.827699        -0.573005        -0.506424
 C        -0.736704        -1.210062         0.449114
 C        -0.074001         0.136712         0.833317
 O         0.695674         0.364566         1.679403
 C        -1.028764         0.381381        -1.453090
 O        -1.964656         1.147921        -2.328908
 H        -0.365429         3.112697         0.919355
 H         0.994495         2.419704         0.042408
 H        -0.452576         3.204116        -0.841631
 H        -2.638858         0.752956         1.283855
 H        -3.023661         1.345514        -0.588241
 H        -2.632597        -1.166456        -0.974339
 H        -1.142871        -1.604653         1.354000
 H         0.074624        -1.799513         0.030542
 H        -0.118923         0.127906        -1.973597
 H        -1.348859         1.777465        -2.770151
