19
Iteration:   178charge 0 multiplicity 1
 C        -0.085874         2.593378         0.254392
 C        -0.646967         1.228994         0.181471
 C        -1.825848         0.712615         0.960691
 C        -2.026914        -0.427450        -0.016350
 C        -0.715932        -1.177775         0.202503
 C         0.244605         0.046581         0.044626
 O         1.486597        -0.026067        -0.165721
 C        -1.659203         0.526644        -1.097533
 O        -2.753522         1.368727        -1.547612
 H        -0.231627         2.997603         1.277739
 H         0.919582         2.540697         0.065136
 H        -0.421037         3.432620        -0.394508
 H        -1.688844         0.529159         2.051254
 H        -2.665996         1.438377         0.877857
 H        -2.996692        -1.023044        -0.013983
 H        -0.753034        -1.507738         1.174203
 H        -0.246207        -1.978861        -0.425140
 H        -1.094750         0.219293        -1.925898
 H        -2.441533         1.840253        -2.331401
