19
Iteration:  3720charge 0 multiplicity 1
 C        -0.131348         2.612159        -0.131534
 C        -0.772296         1.231939        -0.089036
 C        -2.304192         0.777273         0.292104
 C        -1.884660        -0.509694        -0.519799
 C        -0.758443        -1.159263         0.368133
 C        -0.123388         0.089807         0.862536
 O         0.656801         0.365602         1.734761
 C        -0.992745         0.355642        -1.417270
 O        -1.764636         1.090664        -2.334604
 H         0.854467         2.654344        -0.613563
 H        -0.813550         3.286523        -0.620071
 H         0.029327         3.178000         0.940873
 H        -2.548165         0.662439         1.380666
 H        -3.168321         1.228394        -0.206871
 H        -2.620760        -1.252396        -1.033266
 H        -1.143195        -1.799423         1.181707
 H        -0.221223        -1.845163        -0.297327
 H        -0.099835        -0.138781        -1.809292
 H        -1.423968         1.963787        -2.364153
