19
Iteration:   539charge 0 multiplicity 1
 C        -0.156968         2.773215         0.089337
 C        -0.704018         1.230367         0.058104
 C        -2.025113         0.754443         0.946562
 C        -2.027490        -0.456176        -0.091129
 C        -0.766946        -1.151576         0.428212
 C         0.215536        -0.009870         0.229323
 O         1.446943        -0.107455         0.116364
 C        -1.495804         0.513698        -1.211838
 O        -2.449328         1.393009        -1.732647
 H        -0.750421         3.182231         0.935052
 H         0.926370         2.874244         0.308442
 H        -0.508253         3.375405        -0.889937
 H        -1.792545         0.325080         1.856062
 H        -2.740965         1.569307         0.954199
 H        -2.910230        -1.144642        -0.262480
 H        -0.809432        -1.636311         1.426853
 H        -0.478298        -1.885840        -0.371265
 H        -0.754320         0.119084        -1.993998
 H        -3.085685         0.815581        -2.180256
