19
Iteration:  3762charge 0 multiplicity 1
 C        -0.259827         2.706831        -0.037532
 C        -0.656557         1.207984        -0.082402
 C        -2.235464         0.787698         0.316949
 C        -1.902265        -0.427870        -0.525529
 C        -0.854741        -1.122457         0.331109
 C        -0.026224         0.126246         0.815067
 O         0.662859         0.283625         1.815661
 C        -1.042311         0.288302        -1.444084
 O        -1.737799         1.000713        -2.473905
 H         0.332449         3.014030        -0.882180
 H        -1.097547         3.338679        -0.023555
 H         0.383737         2.921116         0.884290
 H        -2.413201         0.488303         1.476592
 H        -3.004520         1.607998         0.030948
 H        -2.764405        -1.068269        -0.887176
 H        -1.306704        -1.571568         1.239211
 H        -0.023466        -1.709404        -0.082658
 H        -0.236989        -0.259031        -1.906559
 H        -1.423800         1.892661        -2.463826
