19
Iteration:  3368
 C        -0.424469         2.609226         0.190278
 C        -0.782911         1.180690        -0.024676
 C        -2.340620         0.850294         0.239176
 C        -1.929575        -0.465403        -0.504884
 C        -0.826934        -1.107653         0.431163
 C        -0.110930         0.110357         0.784103
 O         0.878421         0.347418         1.521618
 C        -1.016895         0.376814        -1.324327
 O        -1.524699         0.968647        -2.513005
 H         0.590545         2.833609        -0.077210
 H        -1.161081         3.106364        -0.431531
 H        -0.658172         2.864134         1.188715
 H        -2.776198         0.656425         1.233499
 H        -3.045357         1.399848        -0.403940
 H        -2.695667        -1.072951        -1.092327
 H        -1.160241        -1.576851         1.363824
 H        -0.069328        -1.779054        -0.090762
 H        -0.026207        -0.053075        -1.543100
 H        -1.935848         1.920326        -2.446007
