19
Iteration:  4841
 C        -0.208441         2.588987        -0.182945
 C        -0.720454         1.218833        -0.066307
 C        -2.183806         0.744850         0.381147
 C        -1.861126        -0.462346        -0.563270
 C        -0.761368        -1.145800         0.368947
 C        -0.075801         0.062612         0.875954
 O         0.591600         0.316083         1.772633
 C        -0.994561         0.416755        -1.419555
 O        -1.828195         1.112221        -2.367559
 H         0.243334         3.043247         0.693046
 H         0.482194         2.799042        -0.982215
 H        -1.011369         3.243814        -0.453412
 H        -2.284038         0.552193         1.377720
 H        -2.984637         1.392699         0.227652
 H        -2.681311        -1.069853        -1.067034
 H        -1.101091        -1.789900         1.239709
 H        -0.218016        -1.930510        -0.179275
 H        -0.102996         0.011071        -2.004518
 H        -1.378035         1.819636        -2.714659
