19
Iteration:  3913charge 0 multiplicity 1
 C        -0.380949         2.718924         0.093942
 C        -0.820386         1.253179         0.040072
 C        -2.388208         0.776479         0.288670
 C        -1.907394        -0.470994        -0.529712
 C        -0.991124        -1.120138         0.543044
 C        -0.104538         0.091065         0.743644
 O         0.896749         0.248484         1.407205
 C        -0.902274         0.389682        -1.234382
 O        -1.536032         0.979380        -2.517399
 H         0.361468         3.014067        -0.741032
 H        -1.274470         3.442249         0.089137
 H         0.169945         2.927655         1.048011
 H        -2.781011         0.662266         1.231648
 H        -3.037722         1.303626        -0.423184
 H        -2.694897        -1.003829        -1.085312
 H        -1.620950        -1.314711         1.459818
 H        -0.401220        -2.033786         0.316315
 H         0.037370        -0.062482        -1.604846
 H        -1.061913         1.764329        -2.543916
