19
Iteration:  1870
 C        -0.401860         2.649691         0.098696
 C        -0.916047         1.228407         0.124688
 C        -2.323901         0.784828         0.451669
 C        -1.982223        -0.532020        -0.256203
 C        -0.830189        -1.218323         0.459979
 C        -0.045050         0.149187         0.571182
 O         1.158341         0.160545         0.846678
 C        -1.131608         0.461130        -1.185094
 O        -1.689149         1.216492        -2.190841
 H        -0.979913         3.333500         0.778177
 H         0.617126         2.876353         0.343890
 H        -0.447212         3.160960        -0.844346
 H        -2.629205         0.892333         1.430125
 H        -2.985721         1.272584        -0.215719
 H        -2.873684        -0.986527        -0.707335
 H        -1.184968        -1.553642         1.426184
 H        -0.230789        -2.011966         0.051921
 H        -0.262703         0.036053        -1.615743
 H        -1.427523         0.685750        -2.995482
