19
Iteration:  1331
 C        -0.431012         2.634109         0.285201
 C        -0.848326         1.176949         0.096483
 C        -2.277362         0.792095         0.568405
 C        -1.973240        -0.404934        -0.195134
 C        -0.851554        -1.096145         0.582341
 C         0.122623         0.062895         0.479068
 O         1.338266         0.076260         0.425049
 C        -1.191671         0.547197        -1.187218
 O        -1.878635         1.215616        -2.202983
 H         0.065438         2.643470         1.229403
 H         0.224739         2.956543        -0.520410
 H        -1.354536         3.273106         0.476470
 H        -2.444213         0.663600         1.695100
 H        -3.170492         1.357789         0.339067
 H        -2.721751        -1.175180        -0.535349
 H        -1.266904        -1.273307         1.617001
 H        -0.509768        -2.145929         0.064831
 H        -0.533407        -0.110548        -1.841013
 H        -2.690844         0.612341        -2.328215
