19
Iteration:  3072charge 0 multiplicity 1
 C        -0.351605         2.707391         0.131652
 C        -0.780626         1.229759        -0.042061
 C        -2.387260         0.758747         0.273400
 C        -1.927668        -0.582367        -0.430218
 C        -1.003433        -1.206203         0.550972
 C        -0.123363         0.194745         0.772561
 O         0.877955         0.336668         1.395954
 C        -0.948841         0.464307        -1.343712
 O        -1.445770         1.017689        -2.512190
 H         0.391116         2.965520        -0.656332
 H        -1.258000         3.375341        -0.055400
 H         0.118975         2.783030         1.073694
 H        -2.815568         0.428323         1.179906
 H        -2.895293         1.386812        -0.335915
 H        -2.591638        -1.319208        -0.764029
 H        -1.442862        -1.398152         1.559875
 H        -0.517981        -2.147764         0.160782
 H         0.067438        -0.111718        -1.532208
 H        -2.161293         1.585132        -2.398360
