19
Iteration:   682
 C        -0.044696         2.585934        -0.208843
 C        -0.677023         1.208321        -0.146647
 C        -1.814908         0.826747         0.865444
 C        -1.994071        -0.443572        -0.101241
 C        -0.695448        -1.208202         0.119409
 C         0.276810        -0.019031         0.226188
 O         1.309676         0.012958         0.840440
 C        -1.563625         0.553329        -1.237202
 O        -2.667953         1.404486        -1.683638
 H        -0.572559         3.316036        -0.871117
 H        -0.187766         2.994285         0.850635
 H         1.019390         2.487188        -0.385675
 H        -1.442774         0.786034         1.891769
 H        -2.712385         1.411306         0.741385
 H        -2.945761        -1.004749        -0.049776
 H        -0.697640        -1.884063         1.081027
 H        -0.522471        -1.854910        -0.784397
 H        -1.119330         0.218758        -2.152920
 H        -3.409808         0.824997        -1.710309
