19
Iteration:   260charge 0 multiplicity 1
 C        -0.276180         2.579459         0.001940
 C        -0.729767         1.191316         0.112212
 C        -1.872854         0.720210         1.074219
 C        -1.982617        -0.409404         0.050658
 C        -0.760119        -1.213487         0.190203
 C         0.284871        -0.017553         0.144159
 O         1.478972        -0.069955        -0.071236
 C        -1.560964         0.585395        -1.078054
 O        -2.511530         1.549729        -1.575499
 H         0.401245         2.757711        -0.855213
 H        -1.231886         3.255025        -0.161757
 H         0.118923         2.815317         0.977022
 H        -1.546347         0.582377         2.130563
 H        -2.645705         1.459704         0.837546
 H        -2.764148        -1.118603        -0.026558
 H        -0.719856        -1.722345         1.238779
 H        -0.527556        -1.995836        -0.508529
 H        -1.063399         0.070712        -1.977737
 H        -3.198881         1.006826        -1.945331
