19
Iteration:  1731
 C        -0.037504         2.686528        -0.088472
 C        -0.687398         1.204691        -0.091884
 C        -2.008012         0.698912         0.545751
 C        -1.920456        -0.539850        -0.365322
 C        -0.693124        -1.192028         0.202972
 C         0.035373         0.097963         0.548009
 O         0.839619         0.247719         1.451614
 C        -1.242138         0.403421        -1.407233
 O        -2.272695         1.208981        -2.085278
 H         0.597341         2.463049        -1.000418
 H        -0.769400         3.429299        -0.316137
 H         0.374797         2.846592         0.860941
 H        -2.043417         0.496397         1.688047
 H        -2.785068         1.416309         0.216956
 H        -2.862571        -0.932749        -0.688833
 H        -0.739452        -1.712426         1.212785
 H        -0.085707        -1.846645        -0.491062
 H        -0.553337         0.026643        -2.244789
 H        -2.056758         2.199855        -1.887984
