19
Iteration:  1475charge 0 multiplicity 1
 C        -0.039900         2.630934        -0.195901
 C        -0.713535         1.307779        -0.193642
 C        -2.038057         0.747731         0.618781
 C        -1.882123        -0.510881        -0.391798
 C        -0.600655        -1.182203         0.155388
 C         0.115044         0.020660         0.612735
 O         0.946883         0.102647         1.456442
 C        -1.302634         0.487901        -1.402931
 O        -2.445053         1.296994        -1.894283
 H         0.097905         3.094798        -1.090532
 H        -0.754415         3.263452         0.264051
 H         0.864991         2.524042         0.455760
 H        -1.895361         0.590940         1.687522
 H        -2.805437         1.499049         0.422428
 H        -2.577496        -1.290613        -0.823848
 H        -0.682117        -1.942636         0.989137
 H         0.024727        -1.526201        -0.766201
 H        -0.799071         0.266379        -2.289380
 H        -2.453177         1.117387        -2.925362
