19
Iteration:  1827charge 0 multiplicity 1
 C        -0.329284         2.656283        -0.022088
 C        -0.735008         1.192917         0.008884
 C        -2.172349         0.728748         0.527597
 C        -1.990690        -0.516839        -0.429759
 C        -0.913383        -1.220599         0.429514
 C         0.026963         0.095092         0.687573
 O         1.185094         0.228967         1.138775
 C        -1.143285         0.407262        -1.275750
 O        -1.993785         1.305425        -2.191544
 H        -1.294226         3.300496        -0.026781
 H         0.263475         2.858471         0.885730
 H         0.362610         2.818601        -0.851661
 H        -2.317035         0.597109         1.533903
 H        -2.837652         1.419683         0.089082
 H        -2.762606        -1.105225        -0.940666
 H        -1.311660        -1.475869         1.465860
 H        -0.395898        -2.127999         0.012718
 H        -0.413262        -0.077635        -1.937014
 H        -1.742128         1.145352        -3.166028
