19
Iteration:  3122
 C        -0.285528         2.681918        -0.059856
 C        -0.781176         1.190026        -0.069109
 C        -2.234960         0.744356         0.200837
 C        -1.931958        -0.505238        -0.474318
 C        -0.814213        -1.143950         0.378816
 C        -0.074178         0.110529         0.824414
 O         0.720937         0.322426         1.770387
 C        -0.945626         0.354861        -1.380715
 O        -1.720554         1.059489        -2.399874
 H         0.258399         2.831371        -0.997202
 H        -1.143875         3.305204        -0.239246
 H         0.365985         3.034466         0.837186
 H        -2.580329         0.754902         1.262992
 H        -2.928363         1.282605        -0.572264
 H        -2.799853        -1.037974        -0.953988
 H        -1.020174        -1.868183         1.146902
 H        -0.065634        -1.581233        -0.277351
 H        -0.058695        -0.040672        -1.690983
 H        -1.702083         2.024665        -2.141401
