19
Iteration:  2690charge 0 multiplicity 1
 C        -0.391393         2.762578         0.130401
 C        -0.936599         1.321467         0.079605
 C        -2.419346         0.849614         0.285945
 C        -2.006881        -0.522390        -0.397217
 C        -0.832154        -1.175079         0.459523
 C        -0.078574         0.129324         0.713039
 O         0.992395         0.210610         1.288533
 C        -0.935291         0.383694        -1.300703
 O        -1.494184         0.979157        -2.458181
 H        -1.145867         3.555688         0.314380
 H         0.196000         2.698665         1.099232
 H         0.373072         3.125094        -0.490180
 H        -2.756288         0.713491         1.432957
 H        -3.208801         1.417421        -0.396601
 H        -2.752167        -1.129542        -0.873874
 H        -1.197572        -1.650482         1.406492
 H        -0.303378        -1.944864        -0.126544
 H        -0.121662        -0.201872        -1.650422
 H        -2.313689         1.397684        -2.326733
