19
Iteration:   505charge 0 multiplicity 1
 C        -0.111404         2.501736         0.235547
 C        -0.795194         1.127731         0.151203
 C        -2.078829         0.890566         0.915341
 C        -2.039761        -0.430614         0.041397
 C        -0.723639        -1.175613         0.466632
 C         0.190348         0.006964         0.206801
 O         1.359255         0.103173        -0.139252
 C        -1.447936         0.512538        -1.151158
 O        -2.362615         1.371561        -1.816515
 H        -0.922721         3.245905         0.121473
 H         0.372605         2.694532         1.172858
 H         0.707666         2.756395        -0.618980
 H        -2.056706         0.732911         1.969740
 H        -2.813895         1.658274         0.704430
 H        -2.877052        -1.170053        -0.040363
 H        -0.642164        -1.592489         1.456276
 H        -0.416354        -1.999813        -0.285927
 H        -0.753888         0.041929        -1.924319
 H        -2.942269         0.854644        -2.355040
