19
Iteration:   496charge 0 multiplicity 1
 C        -0.091589         2.524920         0.185109
 C        -0.717985         1.254744         0.139458
 C        -2.071016         0.786019         0.910727
 C        -2.065353        -0.434694         0.049715
 C        -0.757196        -1.197372         0.435975
 C         0.183506         0.051540         0.220637
 O         1.343529         0.143284        -0.153969
 C        -1.442763         0.418432        -1.082741
 O        -2.369432         1.401752        -1.806047
 H        -0.629687         3.415851        -0.143627
 H         0.032470         2.633448         1.295775
 H         0.979213         2.503764        -0.190991
 H        -1.975380         0.700429         1.940174
 H        -2.888017         1.467795         0.703375
 H        -2.941396        -1.099270        -0.217694
 H        -0.761399        -1.659865         1.453448
 H        -0.547245        -2.045379        -0.211460
 H        -0.971230        -0.300747        -1.848935
 H        -2.808815         0.844376        -2.430467
