19
Iteration:   834
 C        -0.121026         2.520587         0.097348
 C        -0.728760         1.197555         0.027324
 C        -1.960665         0.881688         0.799742
 C        -2.061891        -0.367214        -0.062464
 C        -0.783059        -1.108348         0.315705
 C         0.175073         0.072831         0.285585
 O         1.378455         0.042460         0.483478
 C        -1.457009         0.535475        -1.228386
 O        -2.466691         1.110085        -1.921985
 H         0.946044         2.459916        -0.105065
 H        -0.675322         3.155670        -0.596714
 H        -0.135585         2.853096         1.146173
 H        -1.836177         0.865550         1.980573
 H        -2.792919         1.501420         0.420929
 H        -3.004313        -0.882269        -0.240498
 H        -0.834855        -1.605727         1.243776
 H        -0.367869        -1.781327        -0.396347
 H        -0.645617         0.102529        -1.901120
 H        -2.474013         2.101489        -2.044235
