19
Iteration:  1713charge 0 multiplicity 1
 C        -0.145528         2.597992        -0.155110
 C        -0.678202         1.174576        -0.124196
 C        -2.169277         0.761459         0.513735
 C        -1.912367        -0.503440        -0.378839
 C        -0.708417        -1.217952         0.281869
 C         0.106106         0.066478         0.654943
 O         1.051128         0.197263         1.444523
 C        -1.288804         0.497197        -1.433476
 O        -2.230195         1.257103        -2.115777
 H         0.882887         2.661949        -0.529675
 H        -0.809683         3.293547        -0.743052
 H        -0.257474         2.956088         0.992329
 H        -2.115092         0.675415         1.642524
 H        -3.071455         1.340675         0.214295
 H        -2.691371        -1.242280        -0.686238
 H        -1.049109        -1.835319         1.072949
 H        -0.134337        -1.775432        -0.420066
 H        -0.574847        -0.067087        -2.024366
 H        -2.236733         2.217178        -1.752512
