19
Iteration:  2483charge 0 multiplicity 1
 C        -0.401293         2.701866         0.085528
 C        -0.866649         1.250785         0.185200
 C        -2.324064         0.737685         0.357965
 C        -1.952669        -0.500828        -0.526782
 C        -0.937314        -1.152262         0.473142
 C        -0.068911         0.156621         0.760397
 O         1.057333         0.232703         1.212021
 C        -1.014642         0.381669        -1.331521
 O        -1.571137         1.083758        -2.392293
 H         0.709020         2.757194         0.304816
 H        -0.579262         3.066689        -0.951167
 H        -0.994379         3.347196         0.748762
 H        -2.536217         0.561445         1.330123
 H        -3.038591         1.429622        -0.100755
 H        -2.771939        -1.204444        -0.782578
 H        -1.379770        -1.285945         1.486363
 H        -0.229760        -1.986547         0.131609
 H        -0.223300        -0.125212        -1.920906
 H        -2.408878         1.479719        -2.086164
