19
Iteration:  1156charge 0 multiplicity 1
 C        -0.037294         2.503802        -0.149010
 C        -0.718612         1.221501        -0.115058
 C        -1.984402         0.797188         0.673295
 C        -1.955603        -0.441261        -0.317451
 C        -0.637647        -1.199283         0.226493
 C         0.161668         0.058591         0.445221
 O         1.139019         0.179265         1.192614
 C        -1.389340         0.501885        -1.337393
 O        -2.562069         1.221076        -1.933989
 H        -0.102862         2.937265        -1.185629
 H        -0.338788         3.232172         0.640908
 H         0.996570         2.227178         0.131016
 H        -1.724763         0.635443         1.765324
 H        -2.774511         1.546163         0.530764
 H        -2.840345        -1.074519        -0.517111
 H        -0.651698        -1.855103         1.071958
 H        -0.201165        -1.653563        -0.565351
 H        -0.747330         0.112999        -2.100379
 H        -2.602856         2.186430        -1.692659
