19
Iteration:  1089charge 0 multiplicity 1
 C        -0.352813         2.705964         0.074535
 C        -0.785449         1.239229         0.155030
 C        -2.127822         0.805939         0.783130
 C        -2.012132        -0.422789        -0.106666
 C        -0.827284        -1.216164         0.478481
 C         0.154271        -0.000139         0.475190
 O         1.347119         0.038148         0.411827
 C        -1.286161         0.471006        -1.222606
 O        -2.082943         1.300917        -2.133235
 H         0.569632         2.811536        -0.624375
 H        -1.128529         3.350207        -0.419648
 H        -0.237733         3.084298         1.069422
 H        -2.211342         0.563588         1.892643
 H        -3.011515         1.421680         0.473049
 H        -2.988731        -0.855267        -0.371601
 H        -1.019378        -1.611427         1.468827
 H        -0.528868        -1.912786        -0.182019
 H        -0.450335        -0.045178        -1.684909
 H        -2.832368         0.784789        -2.416486
