19
Iteration:  2437charge 0 multiplicity 1
 C        -0.456132         2.726855         0.212606
 C        -0.928075         1.213054         0.063744
 C        -2.337216         0.777824         0.372209
 C        -1.978545        -0.518705        -0.418062
 C        -0.910452        -1.078472         0.554138
 C        -0.052196         0.248619         0.640533
 O         1.073064         0.149685         1.090730
 C        -1.054471         0.264157        -1.321656
 O        -1.472485         1.131192        -2.345895
 H         0.371047         2.914984         0.954164
 H         0.022801         3.053246        -0.705850
 H        -1.272414         3.485312         0.383436
 H        -2.697834         0.677908         1.388025
 H        -3.007040         1.390844        -0.315729
 H        -2.769904        -1.050773        -0.939389
 H        -1.288356        -1.316245         1.587449
 H        -0.328185        -1.980759         0.067766
 H        -0.063106        -0.076244        -1.720342
 H        -2.429885         0.817591        -2.537234
