19
Iteration:   209charge 0 multiplicity 1
 C        -0.049352         2.527906         0.239445
 C        -0.763921         1.218763         0.146217
 C        -1.921343         0.753099         1.014997
 C        -2.048489        -0.438426         0.053040
 C        -0.685337        -1.266394         0.329988
 C         0.225926        -0.005446         0.089097
 O         1.355291         0.115227        -0.302254
 C        -1.535971         0.597665        -1.037299
 O        -2.599738         1.339539        -1.722506
 H         0.748769         2.307148         0.978306
 H         0.442716         2.702563        -0.659361
 H        -0.642899         3.444296         0.518145
 H        -1.629783         0.522364         2.002060
 H        -2.739851         1.479588         0.992883
 H        -2.991551        -0.992591        -0.156820
 H        -0.660000        -1.727205         1.303411
 H        -0.210069        -2.027298        -0.347335
 H        -0.910378         0.222862        -1.832746
 H        -2.640853         2.157265        -1.142439
