19
Iteration:   865charge 0 multiplicity 1
 C        -0.009172         2.595544        -0.213693
 C        -0.712705         1.168113        -0.091031
 C        -1.964408         0.769372         0.855290
 C        -1.986301        -0.476050        -0.160293
 C        -0.729062        -1.203944         0.199793
 C         0.207779         0.040802         0.389003
 O         1.337305         0.124318         0.848552
 C        -1.585456         0.497892        -1.299144
 O        -2.565462         1.347412        -1.770491
 H         0.526956         2.785453        -1.152801
 H        -0.777373         3.371519         0.006687
 H         0.787346         2.668527         0.723956
 H        -1.732568         0.638028         1.953944
 H        -2.906069         1.261509         0.697660
 H        -2.900619        -1.080690        -0.284607
 H        -1.047696        -1.702003         1.075959
 H        -0.269923        -1.962905        -0.464717
 H        -1.058794        -0.025877        -2.164971
 H        -2.103761         1.811777        -2.470741
