19
Iteration:  1009
 C        -0.130694         2.558524         0.060707
 C        -0.727564         1.217351         0.049004
 C        -2.173720         0.813815         0.746139
 C        -2.005035        -0.468086        -0.134898
 C        -0.794472        -1.170117         0.509583
 C         0.146751         0.033740         0.401119
 O         1.351697         0.119956         0.481152
 C        -1.345093         0.506194        -1.246547
 O        -2.326034         1.213511        -2.026001
 H         0.010484         2.897333         1.119363
 H         0.781143         2.545599        -0.569255
 H        -0.806541         3.357736        -0.432271
 H        -2.191984         0.720543         1.855842
 H        -2.891369         1.604527         0.460583
 H        -2.906344        -0.983635        -0.376824
 H        -0.925421        -1.624674         1.482820
 H        -0.452680        -1.978974        -0.172235
 H        -0.642520         0.096219        -2.018128
 H        -2.501256         2.137429        -1.944886
