19
Iteration:  3218
 C        -0.274742         2.657837         0.043165
 C        -0.793861         1.226159        -0.097999
 C        -2.279673         0.834437         0.283884
 C        -1.841566        -0.549667        -0.553262
 C        -0.789861        -1.130629         0.364674
 C        -0.142103         0.202451         0.785549
 O         0.740719         0.278890         1.654863
 C        -0.938052         0.327588        -1.385704
 O        -1.723309         1.120115        -2.309858
 H         0.827410         2.709937         0.196834
 H        -0.434739         3.170743        -0.889915
 H        -0.844807         3.083465         0.961624
 H        -2.621736         0.779933         1.328551
 H        -3.130369         1.355358        -0.266537
 H        -2.622647        -1.225454        -1.059786
 H        -1.221547        -1.623068         1.279547
 H        -0.044832        -1.892115         0.006614
 H         0.038874        -0.208763        -1.838167
 H        -1.983256         0.667145        -3.180397
