19
Iteration:  4191
 C        -0.346772         2.646331         0.054907
 C        -0.925476         1.232328         0.039533
 C        -2.458847         0.813839         0.209661
 C        -1.937171        -0.500309        -0.546461
 C        -0.963695        -1.134275         0.546899
 C        -0.095339         0.147026         0.806860
 O         0.962646         0.259601         1.361396
 C        -0.926354         0.402811        -1.240664
 O        -1.518855         1.057432        -2.377782
 H         0.560365         2.712354        -0.584109
 H        -1.138874         3.268097        -0.454283
 H        -0.061717         3.033381         1.167655
 H        -2.803841         0.782043         1.188178
 H        -3.104087         1.391475        -0.355433
 H        -2.569011        -1.257620        -0.951117
 H        -1.577851        -1.544378         1.357363
 H        -0.308500        -1.970374         0.176271
 H        -0.065221        -0.167941        -1.602681
 H        -0.661283         1.399723        -2.796004
