19
Iteration:  1655
 C        -0.331505         2.677617         0.100871
 C        -0.877690         1.240550         0.070221
 C        -2.269056         0.757774         0.548733
 C        -2.025305        -0.489002        -0.292561
 C        -0.860618        -1.154022         0.448626
 C         0.030712         0.122912         0.565628
 O         1.223807         0.156972         0.853234
 C        -1.176272         0.448084        -1.264442
 O        -1.859686         1.135243        -2.249448
 H         0.511554         2.479451         0.925932
 H         0.087300         2.991207        -0.872780
 H        -1.232949         3.231449         0.494224
 H        -2.291416         0.475345         1.723301
 H        -3.033544         1.546736         0.326702
 H        -2.840020        -1.120986        -0.592431
 H        -1.109417        -1.693918         1.391695
 H        -0.315739        -1.919254        -0.105768
 H        -0.212340         0.060834        -1.753878
 H        -1.743780         2.035576        -2.012404
