19
Iteration:  1496charge 0 multiplicity 1
 C        -0.157589         2.544184        -0.177240
 C        -0.659009         1.206384        -0.031654
 C        -1.988618         0.685419         0.634305
 C        -1.908308        -0.500436        -0.342549
 C        -0.618463        -1.190915         0.115934
 C         0.164755         0.111510         0.548747
 O         0.953545         0.156190         1.445672
 C        -1.371456         0.469906        -1.409576
 O        -2.337666         1.406541        -1.990774
 H        -0.417104         2.969098        -1.096485
 H        -0.516077         3.249997         0.522891
 H         0.974764         2.571061        -0.194147
 H        -2.162492         0.509527         1.657429
 H        -2.819992         1.313756         0.272547
 H        -2.852191        -1.106490        -0.430188
 H        -0.758223        -1.772877         1.081189
 H        -0.180913        -1.793624        -0.784591
 H        -0.629552         0.143644        -2.193985
 H        -2.512514         1.019381        -2.821185
