19
Iteration:  2606
 C        -0.250264         2.580949        -0.120195
 C        -0.793242         1.173779        -0.079031
 C        -2.267843         0.807898         0.357952
 C        -1.868987        -0.464491        -0.493173
 C        -0.792699        -1.117301         0.354630
 C        -0.038402         0.150318         0.865672
 O         0.817905         0.268110         1.714450
 C        -1.014844         0.391049        -1.453304
 O        -1.791004         1.128375        -2.367993
 H        -0.363843         3.083058        -1.079907
 H        -0.803251         3.174450         0.654374
 H         0.848912         2.548697         0.076776
 H        -2.388976         0.779908         1.351898
 H        -3.106996         1.324674         0.035514
 H        -2.653322        -1.140086        -1.043265
 H        -1.046787        -1.969817         1.021603
 H        -0.154414        -1.577772        -0.419249
 H        -0.250397        -0.093176        -2.125766
 H        -2.669317         1.275083        -1.864244
