19
Iteration:  1376
 C        -0.395761         2.665959         0.090801
 C        -0.879904         1.234979         0.103102
 C        -2.233221         0.787166         0.611894
 C        -1.978437        -0.449148        -0.283520
 C        -0.801487        -1.162915         0.404861
 C         0.124886         0.047046         0.591998
 O         1.319467         0.064002         0.666588
 C        -1.221615         0.442431        -1.211940
 O        -1.961333         1.221658        -2.131284
 H         0.522267         2.808307         0.543173
 H        -0.361616         2.985715        -0.953582
 H        -1.169323         3.343588         0.621907
 H        -2.339893         0.574049         1.678103
 H        -3.163816         1.303839         0.347735
 H        -2.859903        -1.064775        -0.643600
 H        -1.005301        -1.632122         1.400984
 H        -0.361752        -1.920892        -0.302863
 H        -0.440338         0.192472        -1.868004
 H        -2.385550         2.057824        -1.762718
