19
Iteration:  3870
 C        -0.489129         2.704972         0.087976
 C        -0.855248         1.235581         0.023639
 C        -2.427853         0.831508         0.194604
 C        -1.950117        -0.424964        -0.447660
 C        -1.034147        -1.107892         0.538586
 C        -0.071792         0.140910         0.841660
 O         1.038182         0.186723         1.333308
 C        -0.976097         0.355393        -1.306914
 O        -1.428303         1.016591        -2.387601
 H        -0.000814         3.125418        -0.808601
 H        -1.440794         3.213124         0.191129
 H         0.074063         2.990689         0.965610
 H        -2.957143         0.720965         1.122665
 H        -2.892615         1.466821        -0.583433
 H        -2.541040        -1.139057        -1.050554
 H        -1.499752        -1.506830         1.497713
 H        -0.529124        -1.993128         0.091369
 H        -0.076545        -0.313295        -1.528304
 H        -0.706501         1.364812        -2.878787
