19
Iteration:  3499
 C        -0.271493         2.637672         0.014987
 C        -0.743689         1.250644         0.023105
 C        -2.255302         0.749179         0.323373
 C        -1.901180        -0.588967        -0.537599
 C        -0.831835        -1.127404         0.399933
 C        -0.107648         0.121420         0.786801
 O         0.725710         0.326115         1.689072
 C        -0.955483         0.465162        -1.368199
 O        -1.751714         1.078115        -2.482082
 H         0.778480         2.929692        -0.218744
 H        -0.925269         3.349855        -0.551048
 H        -0.379826         2.961363         1.108254
 H        -2.485346         0.787585         1.368611
 H        -2.993125         1.361163        -0.198625
 H        -2.668632        -1.212557        -1.053812
 H        -1.146243        -1.758640         1.227639
 H        -0.073450        -1.703606        -0.109655
 H        -0.038222         0.051117        -1.963476
 H        -1.336177         0.688818        -3.288185
