19
Iteration:  3649charge 0 multiplicity 1
 C        -0.409452         2.658912         0.100411
 C        -0.837676         1.235313        -0.032645
 C        -2.383432         0.783057         0.219594
 C        -1.931285        -0.456796        -0.520289
 C        -0.937446        -1.074603         0.479712
 C        -0.053320         0.159479         0.797139
 O         0.948767         0.226783         1.489861
 C        -0.958517         0.359357        -1.378136
 O        -1.585689         1.070895        -2.372106
 H         0.593664         2.710954         0.529443
 H        -0.553846         3.323878        -0.796347
 H        -1.001022         3.062282         0.802403
 H        -2.369929         0.719774         1.363771
 H        -3.043906         1.582203        -0.132354
 H        -2.579661        -1.150653        -0.952672
 H        -1.386492        -1.468414         1.400061
 H        -0.256733        -1.855293         0.102064
 H        -0.106203        -0.187667        -1.740101
 H        -1.443055         0.538087        -3.117490
