19
Iteration:  3602
 C        -0.457768         2.685318         0.087842
 C        -0.953123         1.241633         0.012866
 C        -2.457572         0.788685         0.284157
 C        -1.936298        -0.506596        -0.492926
 C        -0.972245        -1.088334         0.558099
 C        -0.116737         0.187604         0.835636
 O         1.019412         0.213311         1.258525
 C        -0.920311         0.320674        -1.293516
 O        -1.331372         1.103039        -2.414184
 H         0.621817         2.784741         0.051491
 H        -0.889731         3.245956        -0.696798
 H        -0.798194         3.135426         1.036791
 H        -2.852785         0.648758         1.339354
 H        -3.148263         1.354235        -0.342157
 H        -2.696722        -1.214588        -1.063821
 H        -1.417405        -1.493540         1.494165
 H        -0.404672        -1.956267         0.105508
 H         0.159816         0.018370        -1.473672
 H        -2.269567         0.881513        -2.541179
