19
Iteration:  4248charge 0 multiplicity 1
 C        -0.187458         2.588425        -0.003059
 C        -0.756392         1.211376        -0.088496
 C        -2.259668         0.756109         0.291125
 C        -1.887279        -0.484536        -0.537168
 C        -0.841322        -1.172225         0.444659
 C        -0.064172         0.231784         0.801360
 O         0.698207         0.257605         1.732900
 C        -0.934187         0.409274        -1.441633
 O        -1.833568         1.076965        -2.425906
 H         0.897029         2.462623        -0.160592
 H        -0.596255         3.221439        -0.848562
 H        -0.497540         3.264260         0.967273
 H        -2.414592         0.615347         1.308864
 H        -2.912164         1.494575        -0.276024
 H        -2.719604        -1.097796        -0.849125
 H        -1.391795        -1.457555         1.348310
 H        -0.197440        -1.968275         0.079396
 H        -0.095059        -0.068328        -1.926575
 H        -1.226926         1.706980        -2.816771
