19
Iteration:  4393
 C        -0.398007         2.744918         0.135640
 C        -0.846450         1.256040         0.104249
 C        -2.380031         0.846089         0.227076
 C        -1.949866        -0.447371        -0.513329
 C        -0.939352        -1.111018         0.569829
 C        -0.141743         0.138249         0.833298
 O         0.987843         0.188377         1.401136
 C        -0.982499         0.302879        -1.351977
 O        -1.523380         0.961724        -2.553077
 H         0.501568         3.092359        -0.572689
 H        -1.366299         3.182062        -0.274143
 H        -0.102589         3.080000         1.184970
 H        -2.629747         0.903384         1.223493
 H        -3.049564         1.408344        -0.474065
 H        -2.703920        -1.155000        -0.941739
 H        -1.473226        -1.547584         1.446316
 H        -0.276656        -1.869452         0.201591
 H         0.059047        -0.116736        -1.437202
 H        -1.203902         1.865016        -2.656340
