19
Iteration:  2369
 C        -0.219785         2.697601         0.091929
 C        -0.749183         1.258312        -0.095666
 C        -2.344248         0.729212         0.300735
 C        -1.983084        -0.539166        -0.454176
 C        -0.814726        -1.202095         0.388075
 C        -0.019715         0.213761         0.743903
 O         0.981352         0.268348         1.432752
 C        -1.098205         0.337533        -1.391661
 O        -1.807030         1.172250        -2.237476
 H        -0.423875         3.073603         1.090854
 H         0.890629         2.865202        -0.012683
 H        -0.797846         3.434708        -0.546519
 H        -2.723033         0.581407         1.465873
 H        -2.925566         1.522868        -0.266198
 H        -2.693279        -1.134504        -0.968603
 H        -1.015021        -1.832706         1.323348
 H        -0.104329        -1.951048        -0.183550
 H        -0.263200        -0.307498        -1.902710
 H        -2.457965         0.775011        -2.786737
