19
Iteration:  4514
 C        -0.284205         2.624171        -0.096255
 C        -0.758319         1.162190        -0.075123
 C        -2.260181         0.793405         0.324713
 C        -1.913430        -0.499439        -0.545362
 C        -0.873218        -1.110048         0.478728
 C        -0.062865         0.123731         0.882170
 O         0.797191         0.281466         1.687923
 C        -0.973569         0.335257        -1.440877
 O        -1.767437         1.172012        -2.405518
 H         0.647669         2.722788         0.604008
 H        -0.170259         3.045573        -1.160492
 H        -1.014649         3.186566         0.506015
 H        -2.545396         0.603152         1.294797
 H        -2.854199         1.475618        -0.128979
 H        -2.557931        -1.153622        -1.124511
 H        -1.417905        -1.606323         1.274773
 H        -0.310002        -1.947229         0.111096
 H        -0.129844        -0.233957        -1.970975
 H        -1.095454         1.515189        -2.918572
