19
Iteration:  3272
 C        -0.490841         2.676740         0.050471
 C        -0.938681         1.231918         0.015286
 C        -2.354179         0.699980         0.225280
 C        -1.943124        -0.530042        -0.499966
 C        -0.928619        -1.048693         0.566538
 C        -0.137783         0.182756         0.798508
 O         0.982299         0.204598         1.327554
 C        -0.908665         0.345345        -1.295415
 O        -1.375882         1.167825        -2.364371
 H         0.600699         2.763720         0.136516
 H        -0.901819         3.205950        -0.779651
 H        -0.971212         3.248115         0.941607
 H        -2.810230         0.630921         1.236880
 H        -3.092856         1.357298        -0.389427
 H        -2.722211        -1.303563        -0.962525
 H        -1.334085        -1.552615         1.513855
 H        -0.295233        -1.839657         0.002739
 H         0.076722        -0.099594        -1.374805
 H        -2.286407         0.949763        -2.735481
