19
Iteration:  4539
 C        -0.240491         2.671784        -0.072430
 C        -0.740440         1.226073        -0.064208
 C        -2.193707         0.858043         0.254801
 C        -1.929267        -0.521907        -0.397761
 C        -0.723444        -1.134420         0.340906
 C        -0.070959         0.142409         0.794039
 O         0.639044         0.214295         1.744415
 C        -1.049860         0.386051        -1.366166
 O        -1.775716         1.041256        -2.424236
 H         0.791721         2.692060         0.481251
 H        -0.127517         2.990330        -1.165999
 H        -0.897431         3.402364         0.436169
 H        -2.510577         0.986952         1.342912
 H        -2.911545         1.503885        -0.287071
 H        -2.653160        -1.207969        -0.892631
 H        -1.001473        -1.782472         1.188558
 H        -0.283676        -1.942550        -0.316476
 H        -0.102053        -0.085432        -1.832933
 H        -1.227024         1.823831        -2.603737
