19
Iteration:  4085
 C        -0.231486         2.571863         0.137668
 C        -0.810873         1.252569        -0.008225
 C        -2.385935         0.735439         0.200465
 C        -1.891302        -0.533461        -0.539419
 C        -0.925016        -1.099264         0.541229
 C        -0.135947         0.135207         0.777249
 O         0.869421         0.342015         1.481026
 C        -0.997398         0.456130        -1.360559
 O        -1.683380         1.049376        -2.385329
 H         0.776403         2.385690         0.389455
 H        -0.194591         2.900203        -0.899146
 H        -0.540448         3.339118         0.708014
 H        -2.709103         0.590821         1.295536
 H        -3.137796         1.291010        -0.539490
 H        -2.412718        -1.326689        -1.038893
 H        -1.372809        -1.372261         1.494339
 H        -0.409585        -1.972479         0.183111
 H         0.014153         0.157425        -1.869324
 H        -0.937381         1.537341        -2.899235
