19
Iteration:  4614charge 0 multiplicity 1
 C        -0.202529         2.608056         0.003083
 C        -0.730363         1.167858        -0.098575
 C        -2.292836         0.754621         0.139547
 C        -1.844403        -0.605747        -0.536901
 C        -0.927160        -1.153745         0.553281
 C        -0.110632         0.185479         0.853093
 O         0.777180         0.373544         1.627428
 C        -0.947347         0.321585        -1.404054
 O        -1.814860         1.201410        -2.326133
 H         0.929345         2.495014        -0.168793
 H        -0.657709         3.476715        -0.514409
 H        -0.353603         2.850362         1.061569
 H        -2.711526         0.761569         1.061417
 H        -2.947350         1.253961        -0.492384
 H        -2.680720        -1.200877        -0.991244
 H        -1.273245        -1.726220         1.392343
 H        -0.200950        -1.782094         0.090372
 H        -0.027204        -0.059784        -1.896166
 H        -1.294866         1.412141        -3.134696
