19
Iteration:  1352charge 0 multiplicity 1
 C        -0.409701         2.786934         0.213418
 C        -0.867642         1.213210         0.190190
 C        -2.223569         0.742519         0.711486
 C        -2.024963        -0.537708        -0.310421
 C        -0.835642        -1.143922         0.577194
 C         0.103383         0.121802         0.553239
 O         1.316413         0.012953         0.467631
 C        -1.199981         0.408204        -1.294750
 O        -1.866941         1.262254        -2.223325
 H         0.371864         3.002127         0.938026
 H        -0.137531         3.056178        -0.812740
 H        -1.300802         3.411049         0.481584
 H        -2.663696         0.710080         1.710462
 H        -2.947676         1.428920         0.258201
 H        -2.856892        -1.131992        -0.716052
 H        -1.105342        -1.321753         1.675864
 H        -0.335019        -2.145989         0.096725
 H        -0.322558         0.197861        -1.976444
 H        -2.852607         1.303367        -1.945347
