19
Iteration:  4868
 C        -0.099377         2.569090        -0.074533
 C        -0.738376         1.226996        -0.120751
 C        -2.221957         0.710920         0.202803
 C        -1.790633        -0.560091        -0.539238
 C        -0.777938        -1.126494         0.387146
 C        -0.144678         0.141515         0.804446
 O         0.692122         0.347635         1.766733
 C        -1.051341         0.414552        -1.398356
 O        -1.920391         1.125305        -2.256399
 H        -0.175527         2.953276         0.952781
 H         0.978860         2.587346        -0.312575
 H        -0.476874         3.342697        -0.808605
 H        -2.733317         0.867121         1.295688
 H        -2.957065         1.318529        -0.484556
 H        -2.456213        -1.323667        -1.015002
 H        -1.268643        -1.665217         1.171239
 H        -0.182417        -1.908746        -0.089585
 H        -0.241417        -0.007192        -1.979718
 H        -1.432189         1.763618        -2.685131
