19
Iteration:  1729
 C        -0.040592         2.684697        -0.087544
 C        -0.696224         1.208647        -0.097376
 C        -2.020742         0.700608         0.546461
 C        -1.911811        -0.529410        -0.364628
 C        -0.696454        -1.189562         0.207524
 C         0.046470         0.092781         0.576124
 O         0.852827         0.241587         1.441779
 C        -1.241778         0.383051        -1.407303
 O        -2.272005         1.221404        -2.091057
 H         0.656998         2.518630        -0.967611
 H        -0.793336         3.418487        -0.375617
 H         0.326058         2.915578         0.844450
 H        -2.086599         0.470643         1.584332
 H        -2.760227         1.396132         0.214896
 H        -2.878348        -0.954057        -0.648427
 H        -0.755317        -1.733333         1.216156
 H        -0.114991        -1.886633        -0.510803
 H        -0.580147         0.096706        -2.263366
 H        -2.064484         2.149503        -1.847427
