19
Iteration:  1060
 C        -0.428617         2.690273         0.055838
 C        -0.781639         1.227521         0.156215
 C        -2.187658         0.834960         0.771553
 C        -2.030593        -0.430316        -0.105266
 C        -0.814539        -1.108574         0.486941
 C         0.142852         0.054730         0.441822
 O         1.360932        -0.048896         0.228990
 C        -1.295311         0.430900        -1.110032
 O        -2.004695         1.278752        -1.979214
 H         0.543190         2.888816         0.354500
 H        -0.647367         3.154190        -0.893234
 H        -1.133103         3.130987         0.792212
 H        -2.382538         0.702515         1.813461
 H        -2.941249         1.440699         0.338190
 H        -3.010347        -0.923260        -0.371801
 H        -1.114042        -1.346873         1.530563
 H        -0.474193        -2.082994        -0.120676
 H        -0.465982        -0.092980        -1.618230
 H        -1.790722         1.066240        -2.877357
