19
Iteration:   770
 C        -0.307139         2.552310         0.079101
 C        -0.774053         1.174741         0.150420
 C        -2.161204         0.864620         0.838158
 C        -2.082563        -0.361272        -0.126864
 C        -0.754278        -1.175595         0.602647
 C         0.192945         0.050414         0.376209
 O         1.352414         0.019775        -0.014163
 C        -1.317871         0.482768        -1.186370
 O        -2.216865         1.293119        -1.806643
 H         0.178352         2.800150         1.088509
 H         0.525923         2.691161        -0.672287
 H        -1.003124         3.245697        -0.157253
 H        -2.000024         0.712800         1.963009
 H        -2.927963         1.590386         0.534935
 H        -2.984496        -0.922406        -0.371628
 H        -0.950855        -1.491409         1.738041
 H        -0.466891        -2.076603         0.015559
 H        -0.596991        -0.039283        -1.802724
 H        -1.967269         1.437505        -2.699885
