19
Iteration:  4294
 C        -0.170215         2.663315        -0.068456
 C        -0.716347         1.233496        -0.053304
 C        -2.139058         0.835998         0.251451
 C        -1.886598        -0.529633        -0.439964
 C        -0.779949        -1.122061         0.275733
 C        -0.086853         0.144875         0.816362
 O         0.595998         0.261045         1.850220
 C        -1.034686         0.348672        -1.487832
 O        -1.830018         1.051797        -2.336662
 H         0.954897         2.558732        -0.079961
 H        -0.558078         3.201819        -0.958049
 H        -0.605770         3.200275         0.786609
 H        -2.267692         0.798078         1.332927
 H        -3.007262         1.403549        -0.303973
 H        -2.792197        -1.005911        -0.938568
 H        -0.997498        -1.770950         1.121142
 H        -0.165493        -1.611420        -0.443823
 H        -0.282220        -0.189932        -2.026347
 H        -1.258456         1.523365        -2.883571
