19
Iteration:  1821
 C        -0.321528         2.610045        -0.028216
 C        -0.742090         1.154993        -0.013459
 C        -2.125818         0.794308         0.506580
 C        -1.941582        -0.524032        -0.419485
 C        -0.880675        -1.212640         0.398741
 C         0.041878         0.073508         0.633273
 O         1.086003         0.216802         1.175874
 C        -1.158481         0.459182        -1.267224
 O        -2.031037         1.268177        -2.149988
 H        -1.089511         3.349786        -0.197512
 H         0.201510         3.025540         0.856420
 H         0.485038         2.977886        -0.712813
 H        -2.298518         0.594304         1.665877
 H        -2.847893         1.537254         0.025640
 H        -2.725544        -1.143051        -0.862408
 H        -1.165539        -1.485677         1.414418
 H        -0.317593        -2.097674         0.046963
 H        -0.316381         0.143368        -1.961301
 H        -1.743825         1.086638        -3.079223
