19
Iteration:  3933charge 0 multiplicity 1
 C        -0.284191         2.570574         0.130514
 C        -0.873084         1.179302        -0.044463
 C        -2.347958         0.815141         0.165074
 C        -1.872066        -0.522148        -0.555250
 C        -0.978542        -1.136107         0.506192
 C        -0.144615         0.192134         0.866326
 O         0.905757         0.339812         1.505458
 C        -0.928977         0.382154        -1.388787
 O        -1.641611         1.025230        -2.382114
 H         0.618971         2.652891        -0.619684
 H        -1.041137         3.479442        -0.140225
 H         0.181497         2.720946         1.104848
 H        -2.639489         0.643759         1.177228
 H        -3.135195         1.529960        -0.210315
 H        -2.648389        -1.096551        -0.974870
 H        -1.466638        -1.461791         1.409124
 H        -0.279447        -1.807908         0.022845
 H        -0.017655        -0.016672        -1.771627
 H        -1.122764         1.750417        -2.791975
