19
Iteration:  1417
 C        -0.150632         2.573811         0.022419
 C        -0.775908         1.220996        -0.103031
 C        -2.078471         0.688396         0.627378
 C        -1.990309        -0.517517        -0.294674
 C        -0.702837        -1.186029         0.259980
 C         0.094530         0.083134         0.593644
 O         1.169119         0.216152         1.110949
 C        -1.367645         0.474474        -1.399619
 O        -2.282797         1.291611        -2.085974
 H         0.934774         2.502539        -0.115057
 H        -0.582526         3.338662        -0.648052
 H        -0.307033         3.155138         0.955939
 H        -1.940491         0.559350         1.711065
 H        -2.965385         1.301815         0.493618
 H        -2.847111        -1.127583        -0.530737
 H        -0.890977        -1.857664         1.150494
 H        -0.070515        -1.937693        -0.415545
 H        -0.613321        -0.136509        -2.020677
 H        -1.729836         2.044337        -2.129898
