19
Iteration:  1999
 C        -0.096934         2.669014        -0.237556
 C        -0.724876         1.200786        -0.068742
 C        -2.119616         0.646051         0.553734
 C        -1.908941        -0.625238        -0.373128
 C        -0.615177        -1.206434         0.272695
 C        -0.018490         0.149360         0.710684
 O         0.815566         0.180247         1.616253
 C        -1.238360         0.482871        -1.394493
 O        -2.086461         1.390403        -2.229338
 H         0.862650         2.827926         0.017770
 H        -0.150375         2.792739        -1.345490
 H        -0.788591         3.405631         0.155804
 H        -2.246635         0.402544         1.691846
 H        -2.972382         1.200163         0.163268
 H        -2.764434        -1.290358        -0.578901
 H        -0.738399        -1.747661         1.181632
 H         0.079175        -1.580424        -0.442324
 H        -0.550902         0.044651        -2.163391
 H        -2.212625         1.037433        -3.079817
