19
Iteration:  4652
 C        -0.427076         2.708059        -0.040132
 C        -0.890756         1.266064         0.019022
 C        -2.384072         0.767370         0.318954
 C        -1.947238        -0.483816        -0.452476
 C        -0.966266        -1.162079         0.520348
 C        -0.061547         0.133139         0.793900
 O         0.921424         0.214623         1.516966
 C        -0.925860         0.400767        -1.325179
 O        -1.516672         1.083918        -2.457502
 H         0.412475         2.831611        -0.708292
 H        -1.212553         3.355277        -0.448058
 H         0.032458         2.989128         0.949962
 H        -2.814531         0.687369         1.429818
 H        -3.052568         1.422670        -0.339283
 H        -2.635967        -1.053552        -1.031090
 H        -1.464121        -1.672206         1.407635
 H        -0.262926        -1.923356        -0.008439
 H         0.069821         0.034987        -1.706541
 H        -0.788216         1.009154        -3.171327
