19
Iteration:  1316
 C        -0.352233         2.602511         0.343540
 C        -0.812630         1.242584         0.121855
 C        -2.256861         0.839349         0.621867
 C        -2.023943        -0.466760        -0.218741
 C        -0.845313        -1.110912         0.525072
 C         0.091866         0.091000         0.497526
 O         1.302971         0.131595         0.454395
 C        -1.183399         0.423092        -1.279217
 O        -1.993578         1.191758        -2.176348
 H        -0.006212         2.774592         1.435876
 H         0.515555         2.928022        -0.263700
 H        -1.159817         3.260213         0.149757
 H        -2.487914         0.776256         1.694034
 H        -2.829249         1.533343         0.003041
 H        -2.850359        -1.048045        -0.542251
 H        -1.024736        -1.443896         1.584244
 H        -0.335319        -1.997951        -0.020553
 H        -0.195798         0.012333        -1.663577
 H        -2.453751         0.595332        -2.863100
