19
Iteration:  4667
 C        -0.465281         2.758265         0.003975
 C        -0.868170         1.281007         0.048220
 C        -2.322100         0.768497         0.333227
 C        -1.972861        -0.535573        -0.480965
 C        -0.917153        -1.100018         0.528417
 C        -0.129057         0.170011         0.904027
 O         0.917957         0.123698         1.399624
 C        -1.063989         0.447775        -1.290107
 O        -1.400017         1.042467        -2.558888
 H         0.302794         2.997126        -0.763013
 H        -1.298509         3.350377        -0.323323
 H        -0.060875         3.176741         0.874677
 H        -2.550574         0.582808         1.466299
 H        -3.066632         1.317693        -0.148168
 H        -2.795146        -1.225519        -0.771439
 H        -1.410282        -1.429085         1.429064
 H        -0.265801        -1.819325         0.137394
 H        -0.196692        -0.133508        -1.453652
 H        -0.552928         1.052974        -3.131976
