19
Iteration:  3116
 C        -0.307627         2.660441        -0.083155
 C        -0.749594         1.189767        -0.018471
 C        -2.277591         0.750481         0.211210
 C        -1.933556        -0.522505        -0.470677
 C        -0.829777        -1.122988         0.379514
 C        -0.097862         0.173793         0.875574
 O         0.747465         0.289972         1.735262
 C        -0.944688         0.369925        -1.395498
 O        -1.699072         1.050509        -2.430750
 H         0.365189         2.885389        -0.934604
 H        -1.232090         3.317567        -0.006954
 H         0.214991         2.885189         0.780309
 H        -2.516283         0.756302         1.266350
 H        -2.836362         1.374415        -0.419850
 H        -2.698491        -1.053569        -0.969221
 H        -1.052008        -1.831805         1.208096
 H        -0.070775        -1.595612        -0.313597
 H         0.039314        -0.113168        -1.911980
 H        -1.779666         1.946785        -2.210806
