19
Iteration:  2477
 C        -0.422627         2.694207         0.095710
 C        -0.857589         1.268812         0.209141
 C        -2.328981         0.783789         0.347223
 C        -1.999192        -0.508540        -0.478031
 C        -0.967921        -1.212707         0.498292
 C        -0.027586         0.112799         0.754369
 O         1.107585         0.261198         1.195717
 C        -1.004363         0.382929        -1.347669
 O        -1.562522         1.105870        -2.412236
 H         0.605023         2.736647         0.382291
 H        -0.557298         3.002918        -0.956646
 H        -1.169075         3.297412         0.639969
 H        -2.702747         0.644560         1.488136
 H        -3.020561         1.331719        -0.340320
 H        -2.841537        -1.074487        -0.952967
 H        -1.475172        -1.516805         1.423153
 H        -0.172396        -1.811675         0.138419
 H        -0.110242        -0.104346        -1.792028
 H        -2.434448         1.376912        -2.189498
