19
Iteration:  4898
 C        -0.179406         2.541040         0.096885
 C        -0.807491         1.178830        -0.076096
 C        -2.274903         0.764833         0.264466
 C        -1.885854        -0.498119        -0.499417
 C        -0.827946        -1.126862         0.439040
 C        -0.050538         0.162915         0.850437
 O         0.807979         0.373236         1.597312
 C        -1.037029         0.431715        -1.465269
 O        -1.852127         1.057467        -2.395681
 H        -0.698081         3.103895         0.854551
 H         0.807733         2.327436         0.504751
 H        -0.132296         3.093702        -0.789868
 H        -2.502771         0.749667         1.297244
 H        -3.011720         1.412107        -0.295934
 H        -2.672025        -1.221760        -1.045932
 H        -1.278337        -1.652009         1.287353
 H        -0.190476        -1.750533        -0.206490
 H        -0.087577        -0.074033        -1.860660
 H        -1.255526         1.681892        -2.953438
