19
Iteration:  1031charge 0 multiplicity 1
 C        -0.279117         2.650951         0.075779
 C        -0.812590         1.245112         0.098144
 C        -2.150479         0.831193         0.743540
 C        -2.046363        -0.515584        -0.146785
 C        -0.816302        -1.141617         0.568586
 C         0.188321         0.036097         0.461352
 O         1.390703         0.053188         0.292184
 C        -1.384741         0.370764        -1.209663
 O        -2.153649         1.285083        -2.024620
 H         0.355369         2.787021         1.003687
 H         0.231725         2.902996        -0.875106
 H        -1.123581         3.414093         0.225531
 H        -2.215764         0.672501         1.846347
 H        -2.989938         1.502741         0.437153
 H        -2.962912        -1.019135        -0.345798
 H        -1.239978        -1.393053         1.540061
 H        -0.479561        -2.136438         0.204463
 H        -0.593522         0.013423        -1.898648
 H        -1.629267         2.124542        -2.207898
