19
Iteration:   342
 C         0.149519         2.478126        -0.322958
 C        -0.719391         1.239911        -0.103481
 C        -1.770163         0.698320         0.968642
 C        -1.925477        -0.416291        -0.075363
 C        -0.651393        -1.210313        -0.133473
 C         0.228783        -0.054451         0.164459
 O         1.321988         0.125009         0.635475
 C        -1.735859         0.629995        -1.158105
 O        -2.871638         1.364580        -1.340145
 H        -0.317365         3.421592         0.016599
 H         0.955282         2.301426         0.330290
 H         0.464193         2.623792        -1.416189
 H        -1.331189         0.483580         1.923252
 H        -2.736349         1.148450         1.191952
 H        -2.790692        -1.177819        -0.003076
 H        -0.532112        -1.855150         0.691435
 H        -0.419194        -1.681671        -1.145739
 H        -1.285828         0.279097        -2.111338
 H        -2.620391         2.253526        -0.951730
