19
Iteration:  1846
 C        -0.382521         2.604222         0.038387
 C        -0.878194         1.167896         0.072281
 C        -2.363675         0.743376         0.492421
 C        -2.002934        -0.477352        -0.348775
 C        -0.878031        -1.120814         0.531658
 C         0.066967         0.118753         0.669423
 O         1.285765         0.162365         1.027861
 C        -1.204029         0.393891        -1.392973
 O        -1.799064         1.297162        -2.207691
 H        -1.109199         3.315261         0.275547
 H         0.487392         2.954207         0.642938
 H         0.036794         2.970515        -0.928042
 H        -2.458583         0.392645         1.542422
 H        -3.199720         1.353723         0.154579
 H        -2.813932        -1.228577        -0.505887
 H        -1.241783        -1.632952         1.373118
 H        -0.312535        -1.831270         0.028153
 H        -0.370476         0.039496        -1.930130
 H        -1.562995         1.170313        -3.196584
