19
Iteration:  3782charge 0 multiplicity 1
 C        -0.248405         2.631499         0.025485
 C        -0.765938         1.198252        -0.145688
 C        -2.207065         0.856835         0.246034
 C        -1.930804        -0.521286        -0.483164
 C        -0.882669        -1.171607         0.433764
 C        -0.146455         0.147563         0.838616
 O         0.732826         0.304825         1.677981
 C        -0.918442         0.410683        -1.391928
 O        -1.733939         1.024632        -2.388670
 H         0.260576         3.012378        -0.865146
 H        -1.139948         3.258250         0.150719
 H         0.365799         2.695733         0.841319
 H        -2.563080         0.852365         1.343314
 H        -2.974415         1.378423        -0.407799
 H        -2.623867        -1.136783        -1.001955
 H        -1.112999        -1.733346         1.370680
 H        -0.268986        -1.829068        -0.235849
 H         0.002405        -0.009501        -1.894121
 H        -1.213421         1.626189        -2.865540
