19
Iteration:  4648charge 0 multiplicity 1
 C        -0.431921         2.670890        -0.041207
 C        -0.864578         1.260678         0.035158
 C        -2.408221         0.803290         0.309352
 C        -1.925736        -0.482726        -0.462280
 C        -0.949178        -1.160996         0.499120
 C        -0.045001         0.119067         0.812646
 O         0.891502         0.239582         1.513096
 C        -0.890118         0.361845        -1.306744
 O        -1.550819         1.099900        -2.447584
 H         0.494371         2.850196        -0.695131
 H        -1.181993         3.392142        -0.480520
 H         0.045928         2.942601         0.943098
 H        -2.709334         0.676607         1.276765
 H        -3.095125         1.371146        -0.340008
 H        -2.681067        -1.079493        -1.071042
 H        -1.435506        -1.557170         1.386459
 H        -0.367078        -1.911676        -0.039171
 H         0.093168         0.000980        -1.706446
 H        -0.911874         1.030549        -3.133958
