19
Iteration:  2518charge 0 multiplicity 1
 C        -0.279545         2.627794         0.053861
 C        -0.855756         1.216511         0.011026
 C        -2.312966         0.767767         0.284695
 C        -1.888470        -0.561909        -0.435797
 C        -0.796095        -1.203399         0.482786
 C        -0.068150         0.122238         0.810014
 O         0.963415         0.274955         1.435899
 C        -1.072686         0.469341        -1.425552
 O        -1.747486         1.137976        -2.441749
 H         0.762385         2.740883        -0.342481
 H        -0.944893         3.393509        -0.453659
 H        -0.175740         2.962995         1.093702
 H        -2.556341         0.752150         1.295030
 H        -3.018173         1.347949        -0.228244
 H        -2.802087        -1.178561        -0.745020
 H        -1.107719        -1.682233         1.447421
 H        -0.287005        -2.004931        -0.037781
 H        -0.166748        -0.060723        -1.817674
 H        -2.344703         1.872189        -2.163797
