19
Iteration:  1770charge 0 multiplicity 1
 C        -0.023938         2.539057        -0.037148
 C        -0.658411         1.196578        -0.008007
 C        -2.068676         0.752264         0.534549
 C        -1.944921        -0.471606        -0.392667
 C        -0.626198        -1.196295         0.170219
 C         0.060888         0.098047         0.665130
 O         0.927196         0.268003         1.545736
 C        -1.317948         0.481323        -1.456069
 O        -2.352850         1.208990        -2.176770
 H        -0.056127         2.881773        -1.058505
 H        -0.422622         3.434836         0.507769
 H         1.087080         2.588664         0.155912
 H        -2.140950         0.685559         1.571032
 H        -2.851323         1.374070         0.144815
 H        -2.803334        -1.154382        -0.631542
 H        -0.751474        -2.014020         0.871926
 H         0.027636        -1.598629        -0.607062
 H        -0.684784        -0.065864        -2.162877
 H        -2.136314         1.458777        -3.058844
