19
Iteration:  3419
 C        -0.253216         2.624315        -0.087173
 C        -0.792514         1.207247        -0.137821
 C        -2.330626         0.628142         0.327292
 C        -1.821606        -0.598497        -0.541677
 C        -0.769852        -1.150386         0.440729
 C        -0.063572         0.193021         0.804834
 O         0.640357         0.312797         1.764092
 C        -0.948791         0.445983        -1.434283
 O        -1.701478         1.166692        -2.407757
 H         0.885069         2.547232        -0.229951
 H        -0.712399         3.246012        -0.999341
 H        -0.559320         3.155814         0.833527
 H        -2.495633         0.475827         1.404946
 H        -2.823931         1.455116        -0.085750
 H        -2.387728        -1.252236        -1.054281
 H        -1.219804        -1.623193         1.293966
 H        -0.141066        -1.797588        -0.113931
 H         0.080194         0.164661        -1.870387
 H        -2.365929         1.769862        -2.005144
