19
Iteration:  4754charge 0 multiplicity 1
 C        -0.220687         2.613412         0.159028
 C        -0.847248         1.256475         0.010498
 C        -2.462166         0.756190         0.184825
 C        -1.774614        -0.556709        -0.598668
 C        -0.991610        -1.064748         0.641367
 C        -0.159294         0.193239         0.781944
 O         0.945131         0.285191         1.392992
 C        -0.915360         0.431847        -1.341112
 O        -1.685446         1.012943        -2.402140
 H         0.765215         2.410713         0.498300
 H        -0.287758         3.185502        -0.739183
 H        -0.803762         3.072020         0.849455
 H        -3.118533         0.724598         1.208357
 H        -3.011858         1.269502        -0.612056
 H        -2.418452        -1.313474        -1.151018
 H        -1.731106        -1.247617         1.463285
 H        -0.502923        -2.009460         0.516028
 H         0.001676         0.001706        -1.777613
 H        -1.068505         1.591650        -2.833120
