19
Iteration:  2255charge 0 multiplicity 1
 C        -0.077479         2.731452         0.052483
 C        -0.754316         1.203592        -0.106622
 C        -2.131048         0.715598         0.443709
 C        -1.949676        -0.522268        -0.489754
 C        -0.813976        -1.176844         0.375713
 C         0.002644         0.118238         0.683135
 O         0.882826         0.319051         1.510576
 C        -1.148337         0.358498        -1.423843
 O        -2.057745         1.101701        -2.340616
 H        -0.694950         3.416286        -0.553553
 H        -0.168780         3.014997         1.081496
 H         0.937700         2.676649        -0.254266
 H        -2.250632         0.382850         1.606610
 H        -2.997556         1.434908         0.282114
 H        -2.654065        -1.200032        -1.029304
 H        -1.148983        -1.646884         1.277972
 H        -0.090071        -1.790462        -0.109715
 H        -0.324820        -0.118958        -2.010827
 H        -1.828851         1.969816        -2.099830
