19
Iteration:  2946
 C        -0.314259         2.626457        -0.000900
 C        -0.853330         1.198650        -0.036273
 C        -2.336000         0.837276         0.206458
 C        -1.905585        -0.510182        -0.366309
 C        -0.745219        -1.218134         0.416417
 C        -0.141531         0.149592         0.817910
 O         0.812222         0.287166         1.545973
 C        -0.988610         0.399105        -1.318956
 O        -1.565843         1.116019        -2.432294
 H         0.544064         2.766283         0.618207
 H        -0.161850         2.951200        -0.994603
 H        -1.161918         3.274722         0.301524
 H        -2.768044         0.827114         1.230665
 H        -3.122933         1.442574        -0.351026
 H        -2.645221        -1.190571        -0.939080
 H        -0.990622        -1.898549         1.250998
 H        -0.138199        -1.813598        -0.252824
 H        -0.112684        -0.012464        -1.758824
 H        -2.437475         1.421893        -2.207893
