19
Iteration:  4557charge 0 multiplicity 1
 C        -0.151619         2.707409        -0.066871
 C        -0.717176         1.239431        -0.100654
 C        -2.296238         0.899476         0.359259
 C        -1.857904        -0.455028        -0.515950
 C        -0.779450        -1.248094         0.298324
 C        -0.104129         0.122670         0.833080
 O         0.622528         0.292764         1.746767
 C        -1.014340         0.369217        -1.442196
 O        -1.788300         0.950619        -2.346997
 H         0.852109         2.733578         0.428972
 H        -0.017204         3.056638        -1.092124
 H        -0.728604         3.253523         0.632582
 H        -2.419494         0.803484         1.376989
 H        -3.034640         1.312842        -0.252425
 H        -2.756459        -0.907680        -0.857784
 H        -1.072541        -1.966064         1.042762
 H         0.014634        -1.532684        -0.324061
 H        -0.099570        -0.095715        -1.785202
 H        -1.524513         1.832269        -2.603177
