19
Iteration:   934
 C        -0.099598         2.529972        -0.371149
 C        -0.622196         1.171660        -0.231943
 C        -1.862697         0.744464         0.848849
 C        -1.964179        -0.439468        -0.173094
 C        -0.639009        -1.164760         0.103671
 C         0.220417         0.004363         0.343394
 O         1.098769         0.095830         1.182261
 C        -1.497642         0.528652        -1.298494
 O        -2.520135         1.419646        -1.754092
 H        -1.018432         3.211553        -0.543154
 H         0.435395         2.831910         0.574015
 H         0.560567         2.618234        -1.280170
 H        -1.547553         0.485662         1.930112
 H        -2.658790         1.572687         0.810559
 H        -2.828157        -1.094973        -0.168331
 H        -0.515198        -1.859625         0.930188
 H        -0.289281        -1.622727        -0.765024
 H        -0.899490         0.091208        -2.166184
 H        -3.401373         1.037769        -1.493248
