19
Iteration:   443charge 0 multiplicity 1
 C        -0.212954         2.604554        -0.035922
 C        -0.729472         1.219446         0.066156
 C        -1.894431         0.753659         0.992019
 C        -2.083551        -0.418055        -0.043162
 C        -0.712132        -1.207954         0.241937
 C         0.283542        -0.059314         0.243094
 O         1.526187        -0.041699         0.198672
 C        -1.548396         0.625649        -1.130222
 O        -2.612377         1.420651        -1.664803
 H         0.473799         2.636386        -0.887668
 H        -1.047458         3.314729        -0.291022
 H         0.264465         2.910640         0.838936
 H        -1.732157         0.555827         2.086252
 H        -2.631657         1.580263         0.844050
 H        -2.898783        -1.173110         0.011480
 H        -0.952246        -1.773322         1.188882
 H        -0.379448        -1.911614        -0.488835
 H        -0.946706         0.189712        -1.925983
 H        -2.478892         1.404047        -2.610416
