19
Iteration:  2957
 C        -0.413362         2.691819         0.008125
 C        -0.832712         1.284327        -0.011409
 C        -2.388115         0.859412         0.220328
 C        -1.917640        -0.594318        -0.380079
 C        -0.896471        -1.201824         0.431116
 C        -0.009704         0.052305         0.800604
 O         0.903467         0.286355         1.557674
 C        -0.973811         0.368784        -1.390557
 O        -1.531662         1.128336        -2.433775
 H         0.452800         2.790019         0.628368
 H        -0.170618         3.040096        -0.954981
 H        -1.171312         3.326935         0.542951
 H        -2.763556         1.060103         1.260776
 H        -3.065355         1.129276        -0.681314
 H        -2.701457        -1.324935        -0.898895
 H        -1.081559        -1.675692         1.405479
 H        -0.222320        -1.759798        -0.190497
 H        -0.149805        -0.191275        -1.718890
 H        -2.357625         1.456477        -2.178846
