19
Iteration:  3663
 C        -0.311424         2.679927         0.076314
 C        -0.819249         1.224381        -0.056117
 C        -2.221616         0.743394         0.250878
 C        -1.900909        -0.578040        -0.539053
 C        -0.902131        -1.126383         0.569194
 C        -0.081298         0.155649         0.802087
 O         0.844102         0.265352         1.522690
 C        -0.997224         0.402140        -1.372775
 O        -1.694588         1.142387        -2.410030
 H         0.771264         2.694132         0.320785
 H        -0.389221         3.231263        -0.869111
 H        -0.871901         3.236264         0.915820
 H        -2.750370         0.623736         1.263452
 H        -3.022068         1.208131        -0.417411
 H        -2.682652        -1.110766        -1.043616
 H        -1.421403        -1.445583         1.485450
 H        -0.306238        -1.939869         0.168432
 H        -0.056127         0.057105        -1.739014
 H        -1.332542         0.923810        -3.316606
