19
Iteration:  2722
 C        -0.475581         2.704652         0.220075
 C        -0.855795         1.200675         0.194794
 C        -2.302000         0.811156         0.253697
 C        -1.965837        -0.453283        -0.447860
 C        -0.950366        -1.078124         0.557498
 C        -0.094100         0.179246         0.793106
 O         1.055716         0.220024         1.188196
 C        -0.974550         0.352242        -1.369266
 O        -1.483550         0.994358        -2.530302
 H        -1.355326         3.248844         0.611361
 H         0.258866         2.711372         1.045718
 H        -0.074072         3.081557        -0.699967
 H        -2.911544         0.787166         1.255502
 H        -2.958990         1.520210        -0.354099
 H        -2.661071        -1.138419        -0.817713
 H        -1.539795        -1.364778         1.439840
 H        -0.340085        -1.871903         0.123319
 H        -0.155278        -0.224596        -1.794800
 H        -2.452591         1.230108        -2.440951
