19
Iteration:  1783charge 0 multiplicity 1
 C        -0.042174         2.664720        -0.050939
 C        -0.673899         1.210435        -0.081186
 C        -2.126440         0.794145         0.470066
 C        -1.949246        -0.557398        -0.432002
 C        -0.665246        -1.115776         0.205749
 C         0.093134         0.102085         0.719355
 O         1.004741         0.178880         1.498633
 C        -1.389531         0.428452        -1.397760
 O        -2.274495         1.217664        -2.128700
 H        -0.446909         3.273294        -0.918700
 H        -0.422027         3.058408         0.897706
 H         1.015441         2.473699         0.006930
 H        -2.269069         0.673374         1.481713
 H        -2.815694         1.499909         0.093192
 H        -2.769889        -1.263001        -0.655628
 H        -0.978641        -1.867973         0.999808
 H         0.030706        -1.593614        -0.554210
 H        -0.555809         0.072710        -2.070110
 H        -1.919241         1.024120        -3.054339
