19
Iteration:  1613charge 0 multiplicity 1
 C        -0.346233         2.687952         0.362388
 C        -0.866279         1.217125         0.132679
 C        -2.321026         0.812336         0.462343
 C        -1.995178        -0.498387        -0.297322
 C        -0.922770        -1.115905         0.546702
 C         0.081454         0.127167         0.548669
 O         1.283497         0.152116         0.630369
 C        -1.155293         0.446128        -1.296444
 O        -1.897529         1.096666        -2.229794
 H        -0.245351         2.904824         1.471818
 H         0.719341         2.827495         0.056358
 H        -0.997098         3.487906        -0.221958
 H        -2.468169         0.559724         1.555746
 H        -3.208801         1.242180         0.003570
 H        -2.764838        -1.222004        -0.564136
 H        -1.233148        -1.407502         1.533769
 H        -0.522841        -1.906873        -0.006206
 H        -0.270152        -0.082839        -1.552027
 H        -1.350293         1.509002        -2.886292
