19
Iteration:  1373
 C        -0.406695         2.669518         0.105155
 C        -0.846279         1.286011         0.144648
 C        -2.228959         0.753284         0.580547
 C        -1.968904        -0.449469        -0.269025
 C        -0.814939        -1.143950         0.425657
 C         0.099545         0.035261         0.592541
 O         1.310773         0.054406         0.631912
 C        -1.234567         0.420382        -1.207812
 O        -1.947067         1.232512        -2.147456
 H         0.544951         2.881950         0.634861
 H        -0.401814         3.030811        -0.934130
 H        -1.159095         3.348415         0.514936
 H        -2.322508         0.544637         1.654055
 H        -3.150834         1.304713         0.384423
 H        -2.794232        -1.065312        -0.545963
 H        -1.053891        -1.645019         1.417701
 H        -0.276303        -1.974127        -0.280925
 H        -0.455201         0.189949        -1.959289
 H        -2.402908         1.946278        -1.786206
