19
Iteration:  3497charge 0 multiplicity 1
 C        -0.279699         2.632945         0.016593
 C        -0.741027         1.257163         0.028222
 C        -2.252757         0.781384         0.337478
 C        -1.892738        -0.610096        -0.552414
 C        -0.817643        -1.135624         0.395917
 C        -0.099953         0.130357         0.795670
 O         0.702356         0.319928         1.684740
 C        -0.956243         0.452853        -1.383573
 O        -1.749401         1.085425        -2.479348
 H         0.831262         2.848957        -0.222512
 H        -0.918730         3.414866        -0.615629
 H        -0.353169         2.958707         1.083821
 H        -2.511724         0.723751         1.406999
 H        -2.984892         1.331503        -0.202710
 H        -2.580466        -1.172057        -0.998500
 H        -1.144260        -1.713316         1.229160
 H        -0.052445        -1.694289        -0.089190
 H        -0.061899         0.044474        -1.934310
 H        -1.474111         0.679176        -3.257065
