19
Iteration:  2329charge 0 multiplicity 1
 C        -0.219684         2.615283        -0.193091
 C        -0.706468         1.166312        -0.062505
 C        -2.195169         0.707110         0.526379
 C        -1.865589        -0.539157        -0.469879
 C        -0.708274        -1.242970         0.377732
 C         0.034083         0.120225         0.681283
 O         0.762217         0.284934         1.633907
 C        -1.127968         0.470879        -1.411418
 O        -1.980212         1.302930        -2.266825
 H        -0.971467         3.219025         0.388294
 H         0.766505         2.535486         0.224537
 H        -0.160163         2.862985        -1.278050
 H        -2.324213         0.488631         1.533357
 H        -2.986717         1.444481         0.276546
 H        -2.762849        -1.130579        -0.925863
 H        -1.050784        -1.647011         1.330509
 H        -0.083558        -1.949880        -0.209545
 H        -0.337831         0.111756        -2.063838
 H        -1.616651         1.107704        -3.185670
