19
Iteration:  3612charge 0 multiplicity 1
 C        -0.515877         2.711324         0.107186
 C        -0.896106         1.264729         0.040361
 C        -2.426847         0.878458         0.211854
 C        -1.985168        -0.544968        -0.423302
 C        -0.941173        -1.173245         0.514238
 C        -0.126475         0.159403         0.817840
 O         1.027691         0.216576         1.288474
 C        -0.909766         0.423122        -1.278334
 O        -1.355732         1.074065        -2.423161
 H         0.565905         2.606709         0.114712
 H        -0.759336         3.211750        -0.777180
 H        -0.835141         3.307189         1.046347
 H        -2.668993         0.613594         1.249856
 H        -3.258583         1.431817        -0.236525
 H        -2.720885        -1.397077        -0.907169
 H        -1.486191        -1.568556         1.403723
 H        -0.235298        -1.957374         0.100684
 H        -0.046865        -0.292145        -1.607378
 H        -2.145708         0.786259        -2.782676
