19
Iteration:  1735
 C        -0.042459         2.655056        -0.103364
 C        -0.672497         1.202356        -0.094754
 C        -2.001517         0.704750         0.560860
 C        -1.931468        -0.545105        -0.372290
 C        -0.679835        -1.207657         0.201706
 C         0.032013         0.109090         0.510429
 O         0.818897         0.256632         1.468205
 C        -1.247515         0.456142        -1.412299
 O        -2.268049         1.194497        -2.071544
 H         0.547571         2.492943        -0.970757
 H        -0.778965         3.499688        -0.226286
 H         0.555312         2.742127         0.925683
 H        -1.964646         0.594588         1.692362
 H        -2.831586         1.392522         0.270252
 H        -2.863419        -1.007695        -0.764658
 H        -0.760167        -1.684358         1.136015
 H        -0.061478        -1.760245        -0.449030
 H        -0.551873        -0.073333        -2.090616
 H        -2.078095         2.099864        -2.016898
