19
Iteration:  4238charge 0 multiplicity 1
 C        -0.168864         2.639462        -0.034023
 C        -0.761977         1.198178        -0.098204
 C        -2.324009         0.732291         0.240670
 C        -1.874128        -0.555026        -0.523641
 C        -0.868489        -1.126434         0.484869
 C        -0.139879         0.146509         0.858343
 O         0.788746         0.307854         1.674717
 C        -1.001291         0.367394        -1.446309
 O        -1.770850         1.121463        -2.391550
 H         0.933356         2.631357        -0.052988
 H        -0.578210         3.399448        -0.730646
 H        -0.361628         2.846218         1.108627
 H        -2.629091         0.634415         1.296526
 H        -3.007253         1.597315        -0.172541
 H        -2.675094        -1.043591        -1.090166
 H        -1.370262        -1.546440         1.365598
 H        -0.178278        -1.875210         0.149853
 H        -0.147119        -0.006832        -1.963291
 H        -1.093028         1.675073        -2.884328
