19
Iteration:  2186charge 0 multiplicity 1
 C        -0.416266         2.689877         0.087459
 C        -0.853667         1.264325         0.157779
 C        -2.320415         0.717693         0.341237
 C        -1.971585        -0.484981        -0.420211
 C        -0.896975        -1.045968         0.528282
 C        -0.060416         0.162170         0.714095
 O         1.132531         0.115954         0.971964
 C        -1.012856         0.382754        -1.284653
 O        -1.752110         1.121760        -2.194205
 H        -0.093721         3.017977        -0.882069
 H        -1.111857         3.472322         0.434489
 H         0.471446         2.761572         0.774855
 H        -2.580733         0.601597         1.432699
 H        -3.133680         1.359704        -0.096534
 H        -2.794416        -1.077278        -0.951781
 H        -1.193124        -1.583701         1.423009
 H        -0.280046        -1.643948        -0.101432
 H        -0.162126        -0.188945        -1.637222
 H        -1.293352         1.255665        -3.000338
