19
Iteration:  3793
 C        -0.244005         2.581356         0.052021
 C        -0.796729         1.225923         0.013636
 C        -2.282097         0.859690         0.156381
 C        -1.826243        -0.515375        -0.484085
 C        -0.850545        -1.160023         0.434184
 C        -0.137865         0.104755         0.798630
 O         0.730934         0.321594         1.590300
 C        -0.980482         0.375524        -1.379986
 O        -1.732544         1.054259        -2.379218
 H         0.280345         2.818914        -0.881767
 H        -1.025183         3.340973         0.193316
 H         0.425212         2.740507         0.808156
 H        -2.568885         0.941088         1.285671
 H        -2.971261         1.504657        -0.492388
 H        -2.653302        -1.102690        -0.818843
 H        -1.472691        -1.497284         1.306483
 H        -0.014994        -1.860609         0.240606
 H         0.022327        -0.019470        -1.741249
 H        -1.064855         1.466441        -3.028877
