19
Iteration:  1003
 C        -0.106093         2.545660         0.049949
 C        -0.786266         1.225200         0.062730
 C        -2.112576         0.868698         0.747029
 C        -2.016792        -0.474485        -0.153280
 C        -0.759712        -1.133206         0.441829
 C         0.138984         0.053805         0.372878
 O         1.346432         0.109301         0.551599
 C        -1.364411         0.493596        -1.264863
 O        -2.358438         1.173008        -2.011196
 H         0.041377         2.975295         1.076818
 H         0.905815         2.411215        -0.367933
 H        -0.657034         3.205264        -0.521623
 H        -2.104900         0.631879         1.824936
 H        -2.925143         1.578227         0.471267
 H        -2.958610        -1.051863        -0.422725
 H        -0.951281        -1.632142         1.432290
 H        -0.423959        -1.947307        -0.203842
 H        -0.594083         0.220924        -1.998903
 H        -2.534348         2.145868        -1.703284
