19
Iteration:  2465
 C        -0.491489         2.653237         0.120631
 C        -0.879192         1.168788         0.100237
 C        -2.363046         0.844597         0.306858
 C        -1.965798        -0.476224        -0.357444
 C        -0.950624        -1.217881         0.520824
 C        -0.006750         0.123245         0.807108
 O         1.157357         0.253292         1.139563
 C        -1.044148         0.379565        -1.298894
 O        -1.520961         1.144811        -2.432190
 H         0.404836         2.949500         0.638273
 H        -0.343906         2.995522        -0.933082
 H        -1.194522         3.322309         0.628154
 H        -3.005844         0.930021         1.296227
 H        -2.949501         1.520196        -0.337860
 H        -2.719092        -1.099718        -0.946716
 H        -1.325138        -1.887076         1.294365
 H        -0.563757        -1.976889        -0.112504
 H        -0.025639         0.012051        -1.554961
 H        -2.499969         1.171975        -2.356631
