19
Iteration:  4181charge 0 multiplicity 1
 C        -0.400343         2.670377         0.084489
 C        -0.861664         1.274876         0.070486
 C        -2.441547         0.742407         0.219489
 C        -1.929399        -0.529747        -0.425924
 C        -1.019218        -1.083923         0.540579
 C        -0.163367         0.198754         0.836073
 O         0.994709         0.194555         1.319738
 C        -0.963640         0.354695        -1.321273
 O        -1.454435         1.041269        -2.437985
 H         0.483487         2.782181        -0.548513
 H        -1.175319         3.373575        -0.361426
 H        -0.092575         3.213664         1.150127
 H        -2.702865         0.613535         1.213466
 H        -3.042380         1.439389        -0.307077
 H        -2.614846        -0.949825        -1.072072
 H        -1.508970        -1.469668         1.437341
 H        -0.352003        -1.869870         0.124927
 H         0.035551         0.014225        -1.522796
 H        -0.795857         1.554028        -2.938280
