19
Iteration:   452
 C        -0.184516         2.539840         0.005060
 C        -0.729536         1.166102         0.067250
 C        -1.928044         0.734493         1.010037
 C        -1.977163        -0.387083        -0.016094
 C        -0.729370        -1.182426         0.288428
 C         0.264158         0.009545         0.247577
 O         1.456051        -0.026795         0.115308
 C        -1.594839         0.627241        -1.094553
 O        -2.562582         1.412097        -1.728483
 H         0.272811         2.797964        -0.955490
 H        -0.977742         3.280807         0.134600
 H         0.578464         2.851700         0.808115
 H        -1.899312         0.549695         2.038966
 H        -2.793843         1.355847         0.787950
 H        -3.002147        -0.892565        -0.137877
 H        -0.704749        -1.685645         1.276120
 H        -0.383948        -2.014641        -0.382326
 H        -0.852828         0.260474        -1.888140
 H        -2.458408         1.251554        -2.653221
