19
Iteration:   179
 C        -0.083532         2.582263         0.256124
 C        -0.648179         1.227705         0.181552
 C        -1.832557         0.710884         0.966713
 C        -2.017841        -0.422397        -0.009746
 C        -0.721662        -1.170553         0.205113
 C         0.244714         0.049947         0.045925
 O         1.483929        -0.022441        -0.173064
 C        -1.659375         0.525547        -1.104921
 O        -2.754454         1.365363        -1.554188
 H        -0.218310         2.952661         1.296634
 H         0.945224         2.553942         0.020168
 H        -0.436554         3.426039        -0.372399
 H        -1.688724         0.527100         2.081270
 H        -2.690707         1.428718         0.879687
 H        -2.990960        -1.022294        -0.017840
 H        -0.764189        -1.516476         1.187128
 H        -0.239984        -1.966372        -0.395205
 H        -1.064670         0.240041        -1.947618
 H        -2.386706         1.855992        -2.286217
