19
Iteration:  3596charge 0 multiplicity 1
 C        -0.428089         2.648308         0.063488
 C        -0.965519         1.233474         0.076401
 C        -2.434215         0.694537         0.284187
 C        -1.909047        -0.471180        -0.518736
 C        -0.992938        -1.058510         0.587672
 C        -0.161260         0.179042         0.796866
 O         1.020639         0.225316         1.255634
 C        -0.933174         0.315215        -1.302429
 O        -1.332056         1.106110        -2.416678
 H         0.657697         2.909308        -0.001195
 H        -0.966947         3.345278        -0.693969
 H        -0.786998         3.007231         1.054119
 H        -2.890049         0.829252         1.278558
 H        -3.044749         1.378435        -0.332314
 H        -2.553685        -1.061176        -1.029642
 H        -1.450369        -1.382872         1.517560
 H        -0.356885        -1.827915         0.194902
 H         0.062899         0.028126        -1.496101
 H        -2.253842         0.989433        -2.440619
