19
Iteration:  3353
 C        -0.440185         2.704145         0.238126
 C        -0.886006         1.268896         0.064974
 C        -2.331576         0.747766         0.234266
 C        -1.912706        -0.551112        -0.487812
 C        -0.931069        -1.149474         0.474151
 C        -0.124701         0.216280         0.758522
 O         0.922405         0.311407         1.432458
 C        -0.931836         0.327593        -1.421702
 O        -1.478980         0.984830        -2.522121
 H         0.644903         2.875378        -0.069424
 H        -1.024325         3.582050        -0.297374
 H        -0.493521         3.043094         1.311205
 H        -2.655834         0.779656         1.288812
 H        -2.912069         1.358636        -0.408062
 H        -2.627083        -1.228227        -0.802036
 H        -1.482048        -1.445031         1.351224
 H        -0.394878        -1.952683         0.059499
 H        -0.028672        -0.302828        -1.840051
 H        -1.889549         1.787060        -2.163116
