19
Iteration:  4434charge 0 multiplicity 1
 C        -0.416547         2.690194         0.211542
 C        -0.858603         1.233414         0.052229
 C        -2.363784         0.897141         0.256318
 C        -1.949112        -0.488587        -0.459400
 C        -0.980703        -1.121289         0.562430
 C        -0.139398         0.098506         0.752034
 O         0.955099         0.270338         1.289112
 C        -0.935496         0.395638        -1.335915
 O        -1.468467         0.958605        -2.472092
 H         0.616549         2.856736        -0.087759
 H        -1.076296         3.228804        -0.507722
 H        -0.723107         3.100017         1.260770
 H        -2.707477         0.656790         1.284522
 H        -3.208925         1.567593        -0.226106
 H        -2.704614        -1.156926        -0.943155
 H        -1.589010        -1.321798         1.504186
 H        -0.363590        -1.970844         0.186683
 H        -0.085128        -0.219299        -1.703693
 H        -0.687756         1.144934        -2.985374
