19
Iteration:   729charge 0 multiplicity 1
 C        -0.201548         2.537572        -0.072500
 C        -0.839751         1.208498         0.027370
 C        -2.047970         0.804329         0.918987
 C        -2.078872        -0.459970         0.012350
 C        -0.731034        -1.184616         0.349291
 C         0.183569         0.073391         0.323978
 O         1.419495        -0.000253         0.315989
 C        -1.461497         0.490062        -1.183392
 O        -2.295591         1.433496        -1.818744
 H        -0.817039         3.296621         0.548616
 H         0.836020         2.559297         0.408218
 H        -0.168634         2.804271        -1.143573
 H        -1.904727         0.580500         1.908746
 H        -2.757538         1.624620         0.920515
 H        -2.957997        -1.056574        -0.213142
 H        -0.609664        -1.570255         1.404778
 H        -0.394332        -1.941318        -0.349860
 H        -0.849843         0.056319        -1.966776
 H        -2.707189         1.098840        -2.673147
