19
Iteration:  2949charge 0 multiplicity 1
 C        -0.331239         2.631615         0.004452
 C        -0.842021         1.235314        -0.034382
 C        -2.358994         0.856698         0.201219
 C        -1.900312        -0.537431        -0.341328
 C        -0.787264        -1.221145         0.410043
 C        -0.127785         0.116193         0.807186
 O         0.839369         0.290006         1.554418
 C        -0.986908         0.396811        -1.333798
 O        -1.560509         1.123783        -2.433011
 H         0.515718         2.751514         0.658757
 H        -0.248487         2.989336        -1.008313
 H        -1.161132         3.261974         0.283074
 H        -2.759689         0.870263         1.176467
 H        -3.106575         1.333274        -0.387413
 H        -2.584834        -1.179224        -0.939082
 H        -0.953474        -1.868420         1.297489
 H        -0.133221        -1.823665        -0.257076
 H        -0.040025        -0.120134        -1.766733
 H        -2.443066         1.441481        -2.223666
