19
Iteration:  1344
 C        -0.436092         2.696370         0.257997
 C        -0.885428         1.274317         0.137875
 C        -2.278334         0.777317         0.661373
 C        -1.999996        -0.488177        -0.285710
 C        -0.851262        -1.140802         0.593087
 C         0.128366         0.046376         0.520325
 O         1.360211         0.036687         0.435168
 C        -1.199929         0.430784        -1.238839
 O        -1.868468         1.246941        -2.213842
 H         0.266791         2.842623         1.002810
 H        -0.037360         3.114197        -0.678340
 H        -1.333070         3.411381         0.407438
 H        -2.402999         0.607444         1.770292
 H        -3.031088         1.468918         0.260441
 H        -2.856409        -1.133329        -0.695707
 H        -1.143478        -1.256315         1.633355
 H        -0.411766        -2.059084         0.295507
 H        -0.259509         0.180032        -1.720012
 H        -2.843028         1.138984        -2.269267
