19
Iteration:  2604charge 0 multiplicity 1
 C        -0.235626         2.590143        -0.122872
 C        -0.786619         1.177344        -0.061754
 C        -2.275209         0.805581         0.352109
 C        -1.868652        -0.477005        -0.504009
 C        -0.803726        -1.118030         0.340773
 C        -0.007519         0.139549         0.855703
 O         0.817315         0.273063         1.733161
 C        -1.010267         0.408870        -1.433824
 O        -1.801539         1.124288        -2.392162
 H        -0.369159         3.037846        -1.116962
 H        -0.804084         3.182292         0.627637
 H         0.794193         2.531186         0.134701
 H        -2.332770         0.750257         1.408005
 H        -3.196200         1.285550         0.053387
 H        -2.695666        -1.103153        -0.984354
 H        -1.096256        -1.937201         1.060519
 H        -0.154223        -1.548079        -0.454024
 H        -0.344373        -0.091315        -2.085970
 H        -2.673977         1.233227        -1.872028
