19
Iteration:  4386charge 0 multiplicity 1
 C        -0.375622         2.725200         0.088712
 C        -0.877693         1.253124         0.097907
 C        -2.369906         0.833390         0.202176
 C        -1.921821        -0.496025        -0.502587
 C        -0.936233        -1.177239         0.541649
 C        -0.112604         0.180265         0.882278
 O         0.966757         0.185438         1.427403
 C        -0.993458         0.364260        -1.350049
 O        -1.560474         0.976214        -2.539730
 H         0.434335         2.801535        -0.576554
 H        -1.186578         3.370323        -0.185858
 H        -0.133834         2.972676         1.062384
 H        -2.889295         1.170256         1.235236
 H        -2.823882         1.409151        -0.559698
 H        -2.664153        -1.097125        -0.995209
 H        -1.347043        -1.376509         1.516636
 H        -0.149569        -1.868028         0.194228
 H        -0.059031        -0.069562        -1.606548
 H        -1.105842         1.904092        -2.480559
