19
Iteration:   186charge 0 multiplicity 1
 C        -0.044102         2.536740         0.269656
 C        -0.674026         1.201628         0.146502
 C        -1.893637         0.723809         1.045279
 C        -1.983412        -0.411342         0.016709
 C        -0.717714        -1.128307         0.241430
 C         0.274987         0.051262         0.077186
 O         1.438197         0.007650        -0.219156
 C        -1.656071         0.552348        -1.169312
 O        -2.736440         1.336520        -1.592232
 H        -0.035210         2.701344         1.358240
 H         0.979693         2.578296        -0.138013
 H        -0.688951         3.296222        -0.231404
 H        -1.696922         0.483751         2.053019
 H        -2.761766         1.345523         0.912978
 H        -2.892770        -0.980438        -0.065467
 H        -0.721700        -1.545911         1.291802
 H        -0.389513        -1.990337        -0.398926
 H        -0.993561         0.276539        -2.005107
 H        -2.186357         2.023530        -2.028988
