19
Iteration:  2788charge 0 multiplicity 1
 C        -0.408960         2.609842         0.097455
 C        -0.885279         1.209719         0.090264
 C        -2.345598         0.837183         0.235649
 C        -1.904825        -0.491565        -0.436756
 C        -0.913202        -1.197884         0.472751
 C        -0.099444         0.092694         0.822691
 O         0.956336         0.342750         1.345141
 C        -0.966937         0.310347        -1.350649
 O        -1.527126         1.121118        -2.446873
 H        -0.405776         3.040027         1.124387
 H         0.664944         2.661348        -0.247643
 H        -0.883345         3.275354        -0.594391
 H        -2.809331         1.068853         1.251785
 H        -2.984122         1.555732        -0.328266
 H        -2.567383        -1.135826        -0.901083
 H        -1.316771        -1.631419         1.371882
 H        -0.285765        -1.805993        -0.163747
 H        -0.100034        -0.259381        -1.636031
 H        -2.353007         1.376401        -2.099273
