19
Iteration:  4877charge 0 multiplicity 1
 C        -0.072483         2.604466        -0.016317
 C        -0.737154         1.159690        -0.027827
 C        -2.305710         0.801308         0.144296
 C        -1.812945        -0.571308        -0.502174
 C        -0.737363        -1.201681         0.440360
 C        -0.080023         0.134047         0.833132
 O         0.689328         0.362442         1.686784
 C        -1.038965         0.381005        -1.447400
 O        -1.964139         1.150826        -2.321345
 H        -0.330101         3.060118         0.908063
 H         0.969694         2.443689         0.005667
 H        -0.431317         3.192551        -0.780022
 H        -2.619981         0.790171         1.205208
 H        -3.026403         1.319678        -0.579550
 H        -2.663673        -1.187934        -1.026957
 H        -1.178639        -1.576853         1.325643
 H         0.062562        -1.795592         0.016872
 H        -0.091850         0.132638        -1.955195
 H        -1.368882         1.730886        -2.712230
