19
Iteration:  3495charge 0 multiplicity 1
 C        -0.285748         2.638870         0.019600
 C        -0.745017         1.255492         0.022553
 C        -2.248270         0.808806         0.348890
 C        -1.870595        -0.612624        -0.557169
 C        -0.803754        -1.143689         0.390071
 C        -0.093352         0.143369         0.806520
 O         0.681447         0.312684         1.681534
 C        -0.961138         0.437453        -1.402243
 O        -1.747580         1.095565        -2.467962
 H         0.830697         2.741514        -0.225163
 H        -0.874464         3.411650        -0.639638
 H        -0.326877         2.967452         1.046454
 H        -2.538411         0.651175         1.440725
 H        -2.999135         1.333547        -0.224592
 H        -2.591343        -1.212257        -1.005037
 H        -1.157686        -1.685313         1.265252
 H        -0.004874        -1.725692        -0.095990
 H        -0.090949         0.041079        -1.874863
 H        -1.577920         0.629898        -3.301709
