19
Iteration:  4523charge 0 multiplicity 1
 C        -0.278426         2.565472        -0.072588
 C        -0.735192         1.182941        -0.073245
 C        -2.255982         0.784156         0.306774
 C        -1.897833        -0.465529        -0.497780
 C        -0.862409        -1.105053         0.434114
 C        -0.030143         0.133519         0.782655
 O         0.756561         0.244192         1.761486
 C        -1.010901         0.381833        -1.440567
 O        -1.754622         1.132323        -2.416707
 H         0.666459         2.742059         0.404918
 H        -0.205764         3.043214        -1.061597
 H        -1.097241         3.192755         0.309719
 H        -2.663963         0.677009         1.289190
 H        -2.942684         1.442166        -0.240309
 H        -2.740968        -1.101533        -0.730357
 H        -1.194916        -1.511931         1.394893
 H        -0.067167        -1.709682         0.041814
 H        -0.222028        -0.181686        -1.948942
 H        -1.192378         1.664230        -2.906118
