19
Iteration:  3609charge 0 multiplicity 1
 C        -0.504195         2.705081         0.108927
 C        -0.905888         1.255599         0.012461
 C        -2.448228         0.873060         0.244806
 C        -1.986742        -0.553471        -0.446294
 C        -0.944671        -1.153166         0.523146
 C        -0.101814         0.178798         0.838905
 O         1.017320         0.211766         1.272644
 C        -0.897783         0.398511        -1.280361
 O        -1.343233         1.082215        -2.413807
 H         0.604214         2.583397         0.091007
 H        -0.833036         3.235875        -0.813331
 H        -0.820874         3.322176         1.090864
 H        -2.698141         0.544814         1.206048
 H        -3.288300         1.395913        -0.294029
 H        -2.665177        -1.318599        -0.909354
 H        -1.475715        -1.547529         1.403965
 H        -0.335407        -1.950526         0.119335
 H         0.014274        -0.225588        -1.558240
 H        -2.270802         0.820923        -2.769061
