19
Iteration:  3508charge 0 multiplicity 1
 C        -0.274865         2.674425         0.079717
 C        -0.775773         1.184487        -0.076945
 C        -2.285295         0.696858         0.254380
 C        -1.910574        -0.468011        -0.487869
 C        -0.859048        -1.162713         0.405650
 C        -0.078952         0.146998         0.839494
 O         0.786046         0.325718         1.661439
 C        -0.993004         0.465360        -1.367982
 O        -1.728925         1.040726        -2.471799
 H         0.759087         2.946725        -0.344476
 H        -1.129355         3.220572        -0.533215
 H        -0.393379         3.026498         1.125433
 H        -2.495912         0.665173         1.326406
 H        -2.925454         1.392924        -0.229519
 H        -2.585342        -1.046736        -0.944264
 H        -1.212870        -1.746157         1.231441
 H        -0.231837        -1.786763        -0.190439
 H        -0.010145         0.041621        -1.707410
 H        -1.040796         0.986845        -3.185766
