19
Iteration:  2144charge 0 multiplicity 1
 C        -0.478624         2.647945         0.178292
 C        -0.838880         1.187212         0.087348
 C        -2.341731         0.737905         0.394094
 C        -2.054462        -0.491284        -0.352376
 C        -0.949572        -1.161369         0.630009
 C         0.050236         0.101703         0.732430
 O         1.259455         0.202004         0.958485
 C        -1.124548         0.404595        -1.322603
 O        -1.655783         1.271548        -2.373256
 H        -0.096651         2.788242        -0.827187
 H        -1.285892         3.290134         0.287357
 H         0.220823         3.003683         0.882602
 H        -2.853324         0.456053         1.428381
 H        -2.942625         1.639801        -0.036671
 H        -2.794283        -1.293096        -0.619174
 H        -1.383179        -1.387758         1.584454
 H        -0.467137        -1.986996         0.224364
 H        -0.249078        -0.024119        -1.890218
 H        -1.416443         0.833680        -3.241894
