19
Iteration:  3139charge 0 multiplicity 1
 C        -0.234862         2.637074        -0.145525
 C        -0.770735         1.215623        -0.066367
 C        -2.299068         0.845842         0.282213
 C        -1.794461        -0.581371        -0.496124
 C        -0.704013        -1.259446         0.352642
 C        -0.086239         0.116070         0.771859
 O         0.579736         0.370947         1.776735
 C        -1.012020         0.388543        -1.396849
 O        -1.763038         1.104158        -2.323254
 H         0.596422         2.760351        -0.864504
 H        -1.034965         3.418338        -0.195083
 H         0.220717         2.763334         0.849006
 H        -2.446965         0.770402         1.363820
 H        -2.892263         1.435624        -0.336017
 H        -2.473548        -1.296352        -0.996922
 H        -1.183773        -1.675863         1.279762
 H        -0.091626        -2.030381        -0.193336
 H        -0.101742        -0.109114        -2.008304
 H        -1.332126         2.025708        -2.432059
