19
Iteration:  4230charge 0 multiplicity 1
 C        -0.177898         2.611447        -0.001636
 C        -0.758147         1.196228        -0.082245
 C        -2.308691         0.777517         0.211343
 C        -1.894037        -0.546500        -0.560579
 C        -0.916240        -1.110774         0.519853
 C        -0.132134         0.115939         0.888231
 O         0.808126         0.338949         1.600389
 C        -1.048939         0.358952        -1.409736
 O        -1.716022         1.144309        -2.359818
 H         0.913377         2.693982        -0.146781
 H        -0.645601         3.374070        -0.582560
 H        -0.287196         2.914674         0.957798
 H        -2.652318         0.581352         1.334487
 H        -3.170678         1.229048        -0.444669
 H        -2.450133        -1.424972        -1.064560
 H        -1.340392        -1.662691         1.372218
 H        -0.190682        -1.795356         0.072857
 H        -0.132902        -0.110659        -1.828250
 H        -1.166790         1.650891        -2.963055
