19
Iteration:  4699charge 0 multiplicity 1
 C        -0.535707         2.684990         0.140581
 C        -0.861492         1.231313         0.069166
 C        -2.360846         0.874519         0.237495
 C        -2.036036        -0.439210        -0.511449
 C        -1.020166        -1.095137         0.515832
 C        -0.098213         0.134936         0.774981
 O         1.035010         0.255675         1.298651
 C        -0.940119         0.369321        -1.245111
 O        -1.374378         0.911564        -2.439148
 H         0.341410         2.896165        -0.454460
 H        -1.336634         3.248994        -0.271234
 H        -0.277777         3.003170         1.102288
 H        -2.747041         0.728668         1.382360
 H        -3.045047         1.502138        -0.289674
 H        -2.851050        -1.052906        -0.905876
 H        -1.504446        -1.387376         1.464084
 H        -0.589366        -1.985468         0.061283
 H        -0.067055        -0.216808        -1.500245
 H        -0.724589         1.464981        -2.792444
