19
Iteration:  4781
 C        -0.273709         2.616900         0.028655
 C        -0.814204         1.237421        -0.026994
 C        -2.265158         0.802019         0.252468
 C        -1.925708        -0.525300        -0.529011
 C        -0.928952        -1.162745         0.466636
 C        -0.122820         0.222045         0.865112
 O         0.845185         0.283204         1.565516
 C        -0.914113         0.392967        -1.382392
 O        -1.715162         1.034458        -2.394132
 H         0.637198         2.641212         0.701894
 H        -0.061308         2.983332        -1.035460
 H        -1.156699         3.214461         0.531126
 H        -2.637457         0.789563         1.329214
 H        -2.918604         1.414919        -0.461869
 H        -2.706895        -1.075354        -1.069214
 H        -1.307301        -1.657586         1.349527
 H        -0.320861        -1.869309        -0.161933
 H        -0.020476        -0.112261        -1.762426
 H        -1.130607         1.599089        -2.916900
