19
Iteration:  3737
 C        -0.241989         2.594836        -0.134671
 C        -0.767829         1.217722        -0.093208
 C        -2.224779         0.789577         0.349468
 C        -1.837320        -0.499286        -0.426277
 C        -0.775956        -1.241770         0.436670
 C        -0.060434         0.142591         0.772763
 O         0.589358         0.268259         1.780213
 C        -1.009853         0.468998        -1.393741
 O        -1.750241         1.082813        -2.503924
 H         0.621802         2.642645        -0.826690
 H        -0.939939         3.438569        -0.431512
 H         0.129187         2.740052         0.775408
 H        -2.413043         0.835803         1.473271
 H        -2.894924         1.563370        -0.125156
 H        -2.635529        -1.020351        -0.802062
 H        -1.106775        -1.802472         1.324857
 H         0.022927        -1.737291        -0.157950
 H        -0.073381         0.069849        -1.878910
 H        -1.606336         1.985943        -2.564557
