19
Iteration:  2217charge 0 multiplicity 1
 C        -0.331248         2.606503         0.124921
 C        -0.814652         1.197098         0.069455
 C        -2.330772         0.857838         0.341304
 C        -1.963931        -0.501596        -0.362188
 C        -0.806050        -1.190671         0.471789
 C         0.066580         0.020790         0.658026
 O         1.112265         0.280684         1.234272
 C        -1.126987         0.470963        -1.303118
 O        -1.911732         1.083718        -2.362365
 H        -0.224946         3.059458        -0.860811
 H        -0.878711         3.316637         0.831789
 H         0.728624         2.634466         0.578944
 H        -2.613978         0.947448         1.330515
 H        -2.949818         1.488568        -0.266439
 H        -2.770244        -1.044883        -0.829171
 H        -1.088396        -1.725306         1.417979
 H        -0.398900        -1.955226        -0.247686
 H        -0.300954         0.014869        -1.808763
 H        -1.501407         1.908421        -2.769938
