19
Iteration:  2530
 C        -0.257059         2.620321         0.110300
 C        -0.750260         1.172030         0.040315
 C        -2.240334         0.806604         0.292974
 C        -1.940334        -0.514453        -0.428783
 C        -0.804219        -1.189073         0.394017
 C        -0.027853         0.087313         0.784001
 O         0.909212         0.359681         1.497626
 C        -1.111639         0.342669        -1.379715
 O        -1.794034         1.143937        -2.471211
 H         0.508830         2.632074        -0.679579
 H        -1.099426         3.219873        -0.365499
 H         0.102651         3.038494         1.086922
 H        -2.803388         0.770628         1.229391
 H        -2.890701         1.378574        -0.297959
 H        -2.556359        -1.324933        -0.959993
 H        -1.375016        -1.670173         1.209345
 H        -0.085376        -1.819901        -0.078258
 H        -0.225040         0.094632        -2.022498
 H        -2.309634         1.730152        -1.968736
