19
Iteration:   695charge 0 multiplicity 1
 C        -0.069079         2.617192        -0.124268
 C        -0.636752         1.189593        -0.067506
 C        -1.851326         0.819477         0.900419
 C        -2.043662        -0.413962        -0.051750
 C        -0.743303        -1.307949         0.134401
 C         0.229156         0.006235         0.274333
 O         1.363015         0.055066         0.702933
 C        -1.575750         0.518616        -1.248524
 O        -2.595580         1.412365        -1.765267
 H        -0.899988         3.258726        -0.656905
 H         0.284354         3.083454         0.888644
 H         0.750443         2.737006        -0.797470
 H        -1.670719         0.497359         1.838347
 H        -2.513207         1.659982         0.853715
 H        -2.995534        -0.911669        -0.230237
 H        -0.593359        -1.745243         1.205273
 H        -0.465105        -2.070156        -0.581129
 H        -0.959424         0.016991        -1.974291
 H        -3.405858         0.860603        -2.031712
