19
Iteration:  3642charge 0 multiplicity 1
 C        -0.455749         2.643386         0.121030
 C        -0.796393         1.236495        -0.038035
 C        -2.392777         0.857240         0.277310
 C        -1.944486        -0.472938        -0.474325
 C        -0.933103        -1.092945         0.437028
 C        -0.062337         0.182899         0.812618
 O         0.958162         0.218337         1.447242
 C        -0.911615         0.345887        -1.362544
 O        -1.552439         1.067012        -2.392350
 H         0.610576         2.790547         0.423444
 H        -0.506867         3.169092        -0.839956
 H        -1.146185         3.184673         0.962573
 H        -2.823935         0.615309         1.283036
 H        -3.172428         1.576731        -0.163637
 H        -2.609383        -1.219263        -0.957165
 H        -1.436690        -1.436894         1.353327
 H        -0.270300        -1.860007         0.054127
 H        -0.053896        -0.246617        -1.742991
 H        -1.589746         0.476634        -3.194688
