19
Iteration:   525
 C        -0.213769         2.629121         0.173892
 C        -0.748923         1.234111         0.122018
 C        -1.986479         0.775442         0.889448
 C        -2.010975        -0.419118        -0.027777
 C        -0.746299        -1.182837         0.402981
 C         0.233140         0.028828         0.248744
 O         1.411742        -0.057765        -0.024267
 C        -1.460515         0.540145        -1.103982
 O        -2.425882         1.386381        -1.813987
 H        -0.821660         3.359591         0.709151
 H         0.738035         2.578358         0.656752
 H         0.036340         3.074603        -0.869944
 H        -1.992941         0.797994         2.036946
 H        -2.869285         1.393385         0.624015
 H        -2.927331        -0.980630        -0.224473
 H        -0.859155        -1.394875         1.448862
 H        -0.388687        -2.188402        -0.054611
 H        -0.870803         0.045769        -1.864349
 H        -3.083236         0.801676        -2.215730
