19
Iteration:  1833charge 0 multiplicity 1
 C        -0.335446         2.678473        -0.001764
 C        -0.756307         1.205539         0.030765
 C        -2.227053         0.688236         0.504900
 C        -2.010528        -0.498713        -0.406614
 C        -0.921518        -1.212128         0.476251
 C         0.070654         0.107816         0.714083
 O         1.229211         0.221778         1.105997
 C        -1.153176         0.391058        -1.348582
 O        -1.949459         1.318785        -2.204508
 H        -1.211995         3.215398         0.016564
 H         0.267802         2.764505         0.923237
 H         0.161504         2.758499        -1.001986
 H        -2.381649         0.549463         1.664824
 H        -3.027948         1.415985         0.160389
 H        -2.843888        -1.055910        -0.875530
 H        -1.413416        -1.524372         1.367515
 H        -0.424064        -2.026854        -0.006598
 H        -0.377326        -0.192966        -1.886726
 H        -1.691660         1.143744        -3.083635
