19
Iteration:  4223
 C        -0.196207         2.556334         0.048400
 C        -0.800956         1.175283        -0.040681
 C        -2.331695         0.790559         0.164232
 C        -1.910326        -0.541229        -0.547889
 C        -0.936490        -1.140374         0.526956
 C        -0.142423         0.175301         0.834955
 O         0.840779         0.353609         1.545471
 C        -0.973262         0.377731        -1.369667
 O        -1.699699         1.155529        -2.338421
 H         0.818690         2.514555        -0.416680
 H        -0.862903         3.214510        -0.597836
 H        -0.284515         3.141138         1.104440
 H        -2.609007         0.731423         1.178371
 H        -2.996155         1.182307        -0.468434
 H        -2.500359        -1.399126        -0.827003
 H        -1.483005        -1.685085         1.321635
 H        -0.173112        -1.801812        -0.013015
 H        -0.118692        -0.242757        -1.798890
 H        -1.033029         1.494050        -2.851621
