19
Iteration:   460
 C        -0.149655         2.569505         0.051664
 C        -0.707217         1.189407         0.127421
 C        -1.978351         0.747248         0.994626
 C        -1.976059        -0.426408         0.013068
 C        -0.707796        -1.187514         0.341827
 C         0.193265         0.045472         0.210743
 O         1.409015        -0.001735         0.052461
 C        -1.549018         0.563691        -1.103876
 O        -2.527716         1.417069        -1.763533
 H         0.138492         2.806133        -0.996470
 H        -0.907117         3.194017         0.465734
 H         0.855067         2.509034         0.719113
 H        -1.801648         0.500331         2.029802
 H        -2.880514         1.330567         0.899786
 H        -2.939717        -0.861850        -0.292192
 H        -0.618069        -1.461012         1.368009
 H        -0.493700        -1.970005        -0.484233
 H        -0.930217         0.122138        -1.954880
 H        -2.504458         1.184327        -2.694502
