19
Iteration:  1884
 C        -0.396477         2.745888         0.144590
 C        -0.884723         1.273366         0.122215
 C        -2.367451         0.820527         0.473160
 C        -2.000028        -0.486209        -0.351744
 C        -0.929564        -1.193976         0.502532
 C        -0.020217         0.020281         0.682035
 O         1.209991         0.232901         0.802414
 C        -1.027316         0.386058        -1.241556
 O        -1.709695         1.162204        -2.219067
 H        -0.849281         3.273260         1.106858
 H         0.682570         2.641903         0.218482
 H        -0.837998         3.221856        -0.744342
 H        -2.642028         0.613748         1.483621
 H        -3.153597         1.445088         0.035804
 H        -2.692172        -1.234531        -0.748966
 H        -1.179986        -1.737343         1.498543
 H        -0.451660        -1.947879        -0.254968
 H        -0.076079        -0.133871        -1.525828
 H        -1.758912         0.763572        -3.057119
