19
Iteration:   863charge 0 multiplicity 1
 C        -0.010298         2.611739        -0.195772
 C        -0.709239         1.170004        -0.084992
 C        -1.973546         0.781741         0.864694
 C        -1.985488        -0.459104        -0.149359
 C        -0.736254        -1.211327         0.199588
 C         0.201884         0.035874         0.388117
 O         1.338456         0.127462         0.822919
 C        -1.580360         0.485235        -1.299512
 O        -2.563021         1.328806        -1.779649
 H         0.620075         2.791867        -1.079858
 H        -0.796764         3.372128        -0.026985
 H         0.770705         2.658847         0.772545
 H        -1.706345         0.657418         1.874075
 H        -2.907992         1.264269         0.699349
 H        -2.881904        -1.120536        -0.321009
 H        -1.058176        -1.739689         1.151212
 H        -0.297546        -2.018737        -0.509076
 H        -1.025022        -0.014268        -2.119086
 H        -2.090023         1.892169        -2.479031
