19
Iteration:  3060charge 0 multiplicity 1
 C        -0.351825         2.651351         0.170781
 C        -0.884883         1.215098         0.015732
 C        -2.395112         0.792700         0.233238
 C        -1.948264        -0.518623        -0.503609
 C        -0.958733        -1.124967         0.574752
 C        -0.138492         0.129860         0.803114
 O         0.941468         0.374095         1.318869
 C        -0.985975         0.309466        -1.313517
 O        -1.381794         1.026076        -2.474176
 H         0.414906         2.944307        -0.540170
 H        -1.223414         3.326124        -0.025233
 H        -0.041032         2.913508         1.130275
 H        -2.780338         0.913317         1.219157
 H        -3.078544         1.393114        -0.315904
 H        -2.625329        -1.111472        -1.061319
 H        -1.567198        -1.523768         1.396807
 H        -0.228269        -1.909747         0.248865
 H        -0.007823        -0.145925        -1.726230
 H        -2.317692         1.349197        -2.283108
