19
Iteration:  4566
 C        -0.115346         2.632474        -0.027744
 C        -0.696729         1.218025        -0.097560
 C        -2.241151         0.810014         0.290955
 C        -1.886391        -0.449910        -0.505833
 C        -0.789451        -1.164304         0.310972
 C        -0.154665         0.137553         0.831315
 O         0.645523         0.334309         1.767020
 C        -0.973243         0.426516        -1.405097
 O        -1.837352         0.943143        -2.374463
 H         0.867736         2.600100         0.303532
 H        -0.151900         3.067753        -1.010959
 H        -0.721493         3.345537         0.535285
 H        -2.378869         0.732724         1.429961
 H        -3.168738         1.418654        -0.017511
 H        -2.654384        -1.016510        -1.013752
 H        -1.178745        -1.971747         0.951489
 H        -0.133851        -1.780405        -0.344079
 H        -0.093391         0.045597        -1.900030
 H        -1.520217         1.802172        -2.634412
