19
Iteration:    74charge 0 multiplicity 1
 C         0.003113         2.504045        -0.240171
 C        -0.668689         1.166891        -0.108944
 C        -1.631342         0.608143         1.010844
 C        -1.913790        -0.430135        -0.075110
 C        -0.627743        -1.231169        -0.249997
 C         0.296827        -0.014472         0.027718
 O         1.376454         0.028676         0.520245
 C        -1.857549         0.637107        -1.149438
 O        -2.921882         1.524734        -1.134274
 H         0.548344         2.709671        -1.165936
 H        -0.824653         3.340624        -0.042056
 H         0.808610         2.705137         0.487477
 H        -1.206000         0.255523         1.938009
 H        -2.556381         1.154336         1.084187
 H        -2.763003        -1.099990        -0.122648
 H        -0.310296        -1.902358         0.699211
 H        -0.566006        -1.608262        -1.262636
 H        -1.439898         0.283841        -2.126864
 H        -2.667008         2.433401        -0.914703
