19
Iteration:   230
 C        -0.044805         2.583119         0.137091
 C        -0.692067         1.190587         0.192778
 C        -1.956844         0.682617         1.076909
 C        -2.034873        -0.442391         0.039393
 C        -0.720820        -1.195353         0.269406
 C         0.188843         0.018605         0.135746
 O         1.328876         0.090820        -0.266575
 C        -1.559671         0.505367        -1.083647
 O        -2.454208         1.434852        -1.686439
 H         1.060702         2.609003         0.295022
 H        -0.346137         3.114626        -0.769452
 H        -0.471626         3.286595         0.912418
 H        -1.772003         0.462314         2.094940
 H        -2.758035         1.414135         1.008165
 H        -2.809701        -1.215146        -0.017130
 H        -0.621666        -1.626661         1.303496
 H        -0.523978        -2.082289        -0.408833
 H        -1.084796        -0.019861        -1.936306
 H        -3.299941         1.552408        -1.157056
