19
Iteration:  4107charge 0 multiplicity 1
 C        -0.293773         2.633422         0.160335
 C        -0.919895         1.334975         0.028448
 C        -2.396994         0.808904         0.176899
 C        -1.887925        -0.544403        -0.523400
 C        -0.937535        -1.104224         0.586894
 C        -0.173140         0.183307         0.874946
 O         0.980735         0.237827         1.343810
 C        -0.920660         0.331411        -1.357003
 O        -1.626248         1.036091        -2.430082
 H         0.711283         2.616130         0.430748
 H        -0.550647         3.379893        -0.572112
 H        -0.825978         2.959265         0.949278
 H        -2.860550         0.823143         1.232232
 H        -2.976387         1.449556        -0.645505
 H        -2.622974        -1.207956        -0.993398
 H        -1.362374        -1.467456         1.522657
 H        -0.326018        -1.893313         0.186547
 H        -0.039799        -0.204279        -1.867907
 H        -0.933400         1.451512        -2.897557
