19
Iteration:  3559charge 0 multiplicity 1
 C        -0.406752         2.690701         0.029103
 C        -0.915814         1.240040        -0.010976
 C        -2.477439         0.762646         0.163522
 C        -1.882391        -0.527428        -0.457712
 C        -0.995244        -1.185354         0.621284
 C        -0.112936         0.115649         0.832747
 O         1.020464         0.286235         1.369707
 C        -0.871792         0.432140        -1.322660
 O        -1.485995         1.073127        -2.431351
 H         0.629467         2.782766        -0.202262
 H        -0.995862         3.517609        -0.281645
 H        -0.420774         2.694879         1.067375
 H        -2.838111         0.845577         1.237212
 H        -3.126203         1.229201        -0.574583
 H        -2.548979        -1.241087        -1.055881
 H        -1.605710        -1.608899         1.450243
 H        -0.256408        -1.985129         0.284614
 H        -0.073211        -0.184346        -1.723596
 H        -1.829748         1.869920        -2.153396
