19
Iteration:  1558
 C        -0.293078         2.679742         0.067657
 C        -0.823776         1.188887         0.053052
 C        -2.302672         0.732277         0.542614
 C        -1.967717        -0.499268        -0.368368
 C        -0.788083        -1.241777         0.413612
 C         0.147219         0.096166         0.570524
 O         1.297452         0.143200         0.989840
 C        -1.236733         0.509925        -1.304000
 O        -2.036334         1.333011        -2.138634
 H        -1.234430         3.248503         0.313234
 H         0.475249         2.562380         0.832329
 H         0.091263         3.097480        -0.929058
 H        -2.640267         0.489811         1.588402
 H        -3.096743         1.324550         0.100069
 H        -2.798774        -1.099468        -0.729332
 H        -1.056487        -1.571922         1.412950
 H        -0.351396        -2.129725         0.074092
 H        -0.381827         0.056460        -1.865955
 H        -2.470095         0.831703        -2.792657
