19
Iteration:   461charge 0 multiplicity 1
 C        -0.143932         2.572991         0.058911
 C        -0.708314         1.201335         0.134627
 C        -1.984377         0.748554         0.995893
 C        -1.984735        -0.432680         0.015001
 C        -0.703870        -1.187111         0.346694
 C         0.186387         0.043681         0.203879
 O         1.403605         0.003128         0.044940
 C        -1.538130         0.554609        -1.107784
 O        -2.523208         1.417164        -1.766066
 H         0.113447         2.811734        -0.991481
 H        -0.879658         3.199918         0.501729
 H         0.881200         2.484821         0.707531
 H        -1.781546         0.502930         1.991978
 H        -2.870716         1.346891         0.912100
 H        -2.955504        -0.913326        -0.293411
 H        -0.623869        -1.452473         1.379427
 H        -0.494586        -1.969019        -0.480875
 H        -0.921469         0.084003        -1.971840
 H        -2.509360         1.179775        -2.675401
