19
Iteration:  3681
 C        -0.200296         2.590649         0.002471
 C        -0.779183         1.159959        -0.018774
 C        -2.415223         0.742175         0.189645
 C        -1.806396        -0.523070        -0.498844
 C        -0.833664        -1.187406         0.519465
 C        -0.110601         0.127411         0.854955
 O         0.774246         0.350733         1.588761
 C        -0.952930         0.429944        -1.444775
 O        -1.781193         1.174368        -2.353706
 H         0.884432         2.591991         0.116471
 H        -0.574639         3.121609        -0.926319
 H        -0.619950         3.083807         0.773322
 H        -2.410308         0.834381         1.301025
 H        -3.009319         1.465064        -0.356750
 H        -2.459766        -1.294454        -0.877942
 H        -1.419544        -1.553985         1.381497
 H        -0.198192        -2.052790         0.146009
 H        -0.106815        -0.029345        -2.028191
 H        -1.278893         1.372315        -3.197773
