19
Iteration:  3267
 C        -0.517376         2.648510         0.067575
 C        -0.967079         1.222996         0.034717
 C        -2.344490         0.736849         0.224220
 C        -1.952883        -0.526169        -0.514378
 C        -0.890150        -1.086957         0.579099
 C        -0.103264         0.191440         0.797736
 O         0.942750         0.204575         1.348180
 C        -0.907793         0.379927        -1.318243
 O        -1.386155         1.167972        -2.383157
 H         0.577631         2.658567         0.101943
 H        -0.781963         3.087872        -0.948483
 H        -0.926981         3.154751         0.886481
 H        -2.655999         0.688726         1.272501
 H        -3.011580         1.417540        -0.216205
 H        -2.646182        -1.218186        -0.832186
 H        -1.272697        -1.502946         1.480854
 H        -0.309655        -1.857330         0.145665
 H         0.059117        -0.091221        -1.698189
 H        -2.202173         0.918216        -2.751318
