19
Iteration:  3078charge 0 multiplicity 1
 C        -0.371963         2.704023         0.068509
 C        -0.810633         1.268014        -0.000390
 C        -2.330322         0.696867         0.268083
 C        -1.924036        -0.562559        -0.418887
 C        -0.992192        -1.192449         0.559179
 C        -0.097926         0.182685         0.752139
 O         0.858648         0.300820         1.479550
 C        -0.896220         0.476052        -1.375887
 O        -1.494470         1.014687        -2.544325
 H         0.352125         3.002997        -0.689165
 H        -1.123256         3.446434        -0.047007
 H         0.212149         2.637577         1.074434
 H        -2.710497         0.526935         1.349669
 H        -3.156523         1.350173        -0.351162
 H        -2.751722        -1.249758        -0.858346
 H        -1.340789        -1.332339         1.583566
 H        -0.559238        -2.085476         0.143713
 H        -0.013520        -0.002082        -1.663101
 H        -2.120029         1.795004        -2.414305
