19
Iteration:  1188
 C        -0.038624         2.641457        -0.347515
 C        -0.558444         1.227896        -0.153809
 C        -1.931872         0.687958         0.716165
 C        -1.967470        -0.541044        -0.261379
 C        -0.599229        -1.267803         0.083609
 C         0.146245         0.053191         0.475620
 O         0.974607         0.165579         1.355787
 C        -1.437249         0.508739        -1.290440
 O        -2.523757         1.379843        -1.801903
 H        -0.770997         3.215507        -1.052898
 H         0.012868         3.201902         0.636018
 H         0.988786         2.576644        -0.779210
 H        -1.830206         0.617754         1.868439
 H        -2.690171         1.473981         0.545556
 H        -2.845731        -1.145120        -0.552428
 H        -0.643621        -2.073162         0.836440
 H        -0.092439        -1.646906        -0.824429
 H        -0.885230        -0.035665        -2.076816
 H        -2.309744         1.379872        -2.779553
