19
Iteration:  4653charge 0 multiplicity 1
 C        -0.423555         2.718876        -0.037792
 C        -0.896298         1.264668         0.014146
 C        -2.377429         0.759915         0.319437
 C        -1.951125        -0.484321        -0.451187
 C        -0.968486        -1.163751         0.524575
 C        -0.070696         0.137895         0.790188
 O         0.930208         0.207827         1.517633
 C        -0.937673         0.413434        -1.330574
 O        -1.504548         1.078480        -2.461402
 H         0.389155         2.815837        -0.719625
 H        -1.214697         3.340421        -0.420176
 H         0.000275         3.008211         0.932454
 H        -2.828913         0.692935         1.441363
 H        -3.025150         1.418209        -0.311882
 H        -2.631252        -1.058626        -1.016630
 H        -1.455021        -1.689777         1.398637
 H        -0.258841        -1.907057         0.022272
 H         0.040500         0.038028        -1.683970
 H        -0.796590         1.012009        -3.149512
