19
Iteration:    59
 C         0.001968         2.571071        -0.179182
 C        -0.624250         1.191823        -0.224920
 C        -1.670103         0.619052         1.010028
 C        -1.990023        -0.493821        -0.068770
 C        -0.616778        -1.212927        -0.227253
 C         0.311301         0.001713        -0.011538
 O         1.401248        -0.017528         0.500649
 C        -1.723259         0.698683        -1.075140
 O        -2.993855         1.459883        -1.086269
 H         0.938563         2.547726        -0.851546
 H        -0.619847         3.396891        -0.502506
 H         0.357802         2.747572         0.896500
 H        -1.204666         0.343945         2.025106
 H        -2.432414         1.435252         1.173045
 H        -2.982701        -1.019149         0.063470
 H        -0.541467        -2.029893         0.412242
 H        -0.448636        -1.662619        -1.276823
 H        -1.613632         0.460779        -2.175629
 H        -2.729352         2.203404        -1.739936
