19
Iteration:  1991
 C        -0.162457         2.709390        -0.241254
 C        -0.758604         1.294014        -0.076215
 C        -2.173236         0.634775         0.508736
 C        -1.897421        -0.627887        -0.351152
 C        -0.666781        -1.272985         0.284117
 C         0.023605         0.087013         0.709943
 O         0.856930         0.199418         1.557327
 C        -1.224948         0.524423        -1.344053
 O        -2.056725         1.354751        -2.214501
 H         0.941983         2.689142         0.213747
 H         0.116283         2.965595        -1.216838
 H        -0.573920         3.614495         0.156322
 H        -2.139697         0.625052         1.662779
 H        -3.067220         1.159489         0.132042
 H        -2.658863        -1.390350        -0.594296
 H        -0.975989        -1.882821         1.126565
 H        -0.006310        -1.697794        -0.482259
 H        -0.497288        -0.040437        -2.000823
 H        -2.112243         0.926621        -3.017892
