19
Iteration:  4928
 C        -0.364896         2.778501         0.120123
 C        -0.852769         1.219626         0.036729
 C        -2.275920         0.784648         0.359668
 C        -1.953747        -0.460433        -0.434769
 C        -0.910490        -1.151360         0.451799
 C        -0.105699         0.123996         0.689473
 O         0.926580         0.223504         1.445032
 C        -1.004656         0.397326        -1.404614
 O        -1.640476         0.970409        -2.440087
 H        -1.119037         3.476388         0.609387
 H         0.564144         2.680578         0.796821
 H        -0.091407         3.146820        -0.949887
 H        -2.382046         0.734122         1.435719
 H        -2.975564         1.474607        -0.067434
 H        -2.699916        -0.990851        -1.065334
 H        -1.297910        -1.575364         1.463490
 H        -0.371671        -1.874666        -0.212860
 H         0.005364        -0.039599        -1.648001
 H        -1.069086         1.561513        -2.931119
