19
Iteration:    13
 C        -0.066588         2.569819         0.001163
 C        -0.696755         1.193612        -0.045163
 C        -1.706831         0.630039         1.048856
 C        -2.030058        -0.487758        -0.013872
 C        -0.643522        -1.212243        -0.030134
 C         0.314571        -0.020662        -0.034561
 O         1.516651        -0.046275         0.126171
 C        -1.736529         0.697773        -1.030164
 O        -2.841432         1.554910        -1.337281
 H         0.736608         2.568940         0.807859
 H         0.354915         2.851575        -0.919341
 H        -0.874020         3.281545         0.295096
 H        -1.315561         0.249736         2.016810
 H        -2.462661         1.405527         1.260497
 H        -2.970111        -0.990856        -0.250064
 H        -0.359600        -1.917627         0.695250
 H        -0.589634        -1.715547        -1.020398
 H        -1.314690         0.457168        -2.032586
 H        -3.699444         1.241083        -0.918896
