19
Iteration:  1431charge 0 multiplicity 1
 C        -0.105747         2.563585        -0.044330
 C        -0.737347         1.136693        -0.101888
 C        -2.071301         0.763777         0.680678
 C        -1.902511        -0.514370        -0.374981
 C        -0.692774        -1.189014         0.253270
 C         0.111982         0.120706         0.504530
 O         1.084655         0.216470         1.247030
 C        -1.321900         0.465568        -1.381449
 O        -2.379263         1.285779        -2.020499
 H         0.849859         2.488693        -0.399334
 H        -0.585330         3.359162        -0.565881
 H        -0.047662         2.581109         1.088457
 H        -1.976437         0.436816         1.705886
 H        -2.877733         1.436963         0.405373
 H        -2.783621        -1.183084        -0.648586
 H        -0.883175        -1.834810         1.171946
 H        -0.098646        -1.693967        -0.599378
 H        -0.647275         0.204682        -2.152957
 H        -2.089402         2.019009        -2.724839
