19
Iteration:  4581
 C        -0.126882         2.554433        -0.022758
 C        -0.767649         1.199736        -0.026167
 C        -2.201628         0.758649         0.306648
 C        -1.820943        -0.518719        -0.589126
 C        -0.844223        -1.107348         0.409763
 C        -0.099283         0.169539         0.769306
 O         0.657678         0.359131         1.779733
 C        -0.992066         0.424568        -1.418139
 O        -1.907512         1.043473        -2.438156
 H         0.980678         2.389094         0.351123
 H        -0.125733         3.009151        -1.042438
 H        -0.478091         3.095995         0.845917
 H        -2.514410         0.571448         1.248352
 H        -2.766713         1.385104        -0.256421
 H        -2.602906        -1.176353        -1.030187
 H        -1.171253        -1.495467         1.357937
 H        -0.120216        -1.778826         0.013005
 H        -0.043429        -0.024225        -1.811692
 H        -1.422306         1.824614        -2.954367
