19
Iteration:  4210charge 0 multiplicity 1
 C        -0.301838         2.530247         0.026861
 C        -0.870765         1.191056         0.048253
 C        -2.359886         0.806330         0.146403
 C        -1.907582        -0.535801        -0.471079
 C        -0.915982        -1.145624         0.488391
 C        -0.136326         0.149272         0.838463
 O         0.866195         0.359254         1.448668
 C        -0.936904         0.345649        -1.346866
 O        -1.619114         1.130206        -2.309790
 H         0.747010         2.507408        -0.397476
 H        -0.883809         3.268569        -0.556216
 H        -0.069761         2.868157         1.015335
 H        -2.896314         0.805818         1.167785
 H        -2.853659         1.537302        -0.507273
 H        -2.737719        -0.977759        -1.105517
 H        -1.365080        -1.516584         1.445856
 H        -0.286691        -2.005164         0.128318
 H         0.079035         0.034121        -1.795653
 H        -1.014210         1.565010        -3.041946
