19
Iteration:  4111
 C        -0.357106         2.638487         0.177393
 C        -0.886382         1.334503         0.046613
 C        -2.375430         0.866408         0.177773
 C        -1.894148        -0.511826        -0.542251
 C        -0.953052        -1.110473         0.570837
 C        -0.158090         0.189274         0.889445
 O         0.978012         0.229405         1.309509
 C        -0.946448         0.298321        -1.362714
 O        -1.603266         1.003395        -2.413341
 H         0.817355         2.711089         0.399754
 H        -0.709065         3.318853        -0.671156
 H        -0.849212         3.081486         1.231741
 H        -2.803824         0.859277         1.189807
 H        -2.948726         1.356272        -0.593933
 H        -2.554517        -1.328891        -1.105570
 H        -1.321228        -1.461395         1.597196
 H        -0.397593        -1.992436         0.184795
 H        -0.066671        -0.168796        -1.893604
 H        -0.789569         1.453186        -2.834227
