19
Iteration:  2928
 C        -0.234378         2.583839        -0.024823
 C        -0.829652         1.241933         0.035356
 C        -2.280773         0.707533         0.386412
 C        -1.917370        -0.544354        -0.605077
 C        -0.823828        -1.069399         0.343715
 C        -0.131222         0.179089         0.822270
 O         0.768831         0.356727         1.633396
 C        -1.029940         0.384477        -1.411630
 O        -1.615993         1.069079        -2.424898
 H         0.621773         2.445600         0.669560
 H         0.072673         2.836796        -1.073111
 H        -0.827126         3.452408         0.263402
 H        -2.542131         0.559556         1.406556
 H        -3.017998         1.385372         0.006839
 H        -2.654368        -1.226881        -1.074159
 H        -1.154377        -1.663243         1.222749
 H         0.072603        -1.632884        -0.052375
 H        -0.041408        -0.128161        -1.771236
 H        -2.485044         1.376759        -2.155115
