19
Iteration:  2631charge 0 multiplicity 1
 C        -0.264295         2.640251        -0.039134
 C        -0.754905         1.192747        -0.009597
 C        -2.223619         0.757973         0.239519
 C        -1.901988        -0.632780        -0.455161
 C        -0.809634        -1.158161         0.447425
 C        -0.078782         0.133388         0.718158
 O         0.793052         0.307108         1.551028
 C        -1.057815         0.401182        -1.342420
 O        -1.689604         1.196619        -2.349746
 H        -0.832513         3.222431        -0.804520
 H        -0.484225         3.095586         0.927825
 H         0.824721         2.798880        -0.419551
 H        -2.552885         0.894063         1.342357
 H        -3.074948         1.263035        -0.274926
 H        -2.778191        -1.215595        -0.805062
 H        -1.120557        -1.603503         1.384845
 H        -0.168988        -1.970890         0.033863
 H        -0.294093        -0.151715        -2.021528
 H        -2.550135         1.605906        -1.955398
