19
Iteration:  1340charge 0 multiplicity 1
 C        -0.462998         2.662567         0.259127
 C        -0.870866         1.274925         0.124372
 C        -2.303200         0.790050         0.619820
 C        -1.984641        -0.461594        -0.253430
 C        -0.861155        -1.122205         0.591348
 C         0.143393         0.025578         0.497983
 O         1.359880         0.049849         0.427831
 C        -1.207363         0.480256        -1.212677
 O        -1.872130         1.236409        -2.209904
 H         0.285329         2.773814         1.104012
 H         0.082512         3.067862        -0.608794
 H        -1.302824         3.319103         0.446707
 H        -2.237789         0.540507         1.685738
 H        -3.099859         1.448499         0.268314
 H        -2.758782        -1.115801        -0.612074
 H        -1.247562        -1.255546         1.654711
 H        -0.354629        -2.167826         0.269757
 H        -0.227503        -0.015066        -1.575985
 H        -2.839609         1.041332        -2.338763
