19
Iteration:  2403charge 0 multiplicity 1
 C        -0.351549         2.576799         0.159118
 C        -0.911200         1.217388         0.041374
 C        -2.354445         0.777526         0.382749
 C        -1.875424        -0.444036        -0.496815
 C        -0.881695        -1.167746         0.585483
 C        -0.075152         0.143876         0.796911
 O         1.074463         0.232297         1.178698
 C        -0.984193         0.506912        -1.309810
 O        -1.697334         1.103358        -2.456361
 H         0.107856         2.748751         1.143099
 H         0.306737         2.676505        -0.700787
 H        -1.227995         3.242486        -0.090753
 H        -2.783797         0.752366         1.432555
 H        -2.938813         1.578242        -0.199270
 H        -2.642486        -0.992639        -1.011219
 H        -1.355881        -1.522880         1.549531
 H        -0.295799        -2.006155         0.040783
 H         0.068610         0.215841        -1.638628
 H        -2.531775         0.623295        -2.667225
