19
Iteration:  2830charge 0 multiplicity 1
 C        -0.326329         2.602130        -0.039672
 C        -0.901637         1.197203        -0.030586
 C        -2.262104         0.768537         0.430670
 C        -1.872487        -0.478402        -0.446496
 C        -0.776415        -1.124427         0.439490
 C        -0.084903         0.112459         0.784368
 O         0.758786         0.238456         1.607255
 C        -0.962756         0.476003        -1.421064
 O        -1.618738         1.118164        -2.530343
 H         0.329593         2.748961         0.902266
 H         0.306344         2.767743        -1.005251
 H        -0.987180         3.494062        -0.236065
 H        -2.593932         0.489091         1.437133
 H        -3.141631         1.167437        -0.016594
 H        -2.593987        -1.104767        -0.956576
 H        -1.225551        -1.549228         1.382040
 H        -0.219581        -2.029030         0.083710
 H         0.058732         0.026214        -1.771054
 H        -2.406476         1.654324        -2.319348
