19
Iteration:  1989
 C        -0.164465         2.716551        -0.236569
 C        -0.771951         1.306087        -0.080481
 C        -2.190107         0.637912         0.495301
 C        -1.887825        -0.613917        -0.344782
 C        -0.680729        -1.274324         0.283071
 C         0.034633         0.068486         0.704825
 O         0.870659         0.207892         1.543834
 C        -1.227378         0.522992        -1.342024
 O        -2.047231         1.345113        -2.199482
 H         0.792349         2.626478         0.264054
 H         0.142763         2.987308        -1.217643
 H        -0.540278         3.619427         0.179172
 H        -2.142484         0.666147         1.689244
 H        -3.077979         1.174323         0.145776
 H        -2.647959        -1.361324        -0.634250
 H        -0.973426        -1.936164         1.051166
 H        -0.065190        -1.789302        -0.412148
 H        -0.420651        -0.025992        -1.946013
 H        -2.075632         0.847320        -3.035772
