19
Iteration:  3529charge 0 multiplicity 1
 C        -0.373601         2.651846         0.076557
 C        -0.890769         1.235556         0.092027
 C        -2.314696         0.842385         0.260913
 C        -1.907415        -0.536404        -0.557796
 C        -0.861685        -1.101485         0.432072
 C        -0.068839         0.164008         0.804293
 O         0.844641         0.289761         1.548109
 C        -0.916651         0.296630        -1.437760
 O        -1.656564         1.005390        -2.442223
 H         0.689700         2.777205        -0.307864
 H        -1.121500         3.477824        -0.348773
 H        -0.296878         2.877482         1.153244
 H        -2.591780         0.957162         1.354997
 H        -2.984325         1.469044        -0.294710
 H        -2.563267        -1.158817        -0.983654
 H        -1.318682        -1.500014         1.321434
 H        -0.163297        -1.872640         0.133918
 H        -0.068091        -0.213647        -1.849574
 H        -1.065983         1.838461        -2.585701
