19
Iteration:  4677charge 0 multiplicity 1
 C        -0.516338         2.754155         0.019193
 C        -0.875265         1.288818         0.111249
 C        -2.366716         0.810920         0.366905
 C        -1.977574        -0.470111        -0.421917
 C        -0.928957        -1.051837         0.512078
 C        -0.186631         0.177809         0.828634
 O         0.965292         0.116626         1.367405
 C        -0.963299         0.302964        -1.320087
 O        -1.390508         1.039526        -2.586781
 H         0.283034         2.901575        -0.692682
 H        -1.364750         3.339684        -0.218885
 H        -0.152745         2.996529         0.963961
 H        -2.594248         0.611909         1.561529
 H        -3.171860         1.373985        -0.020842
 H        -2.694765        -1.140196        -0.907276
 H        -1.446460        -1.424410         1.415037
 H        -0.284399        -1.842283         0.185718
 H        -0.049060        -0.138131        -1.618421
 H        -0.414069         1.079440        -2.985096
