19
Iteration:  2349charge 0 multiplicity 1
 C        -0.286828         2.563646        -0.009239
 C        -0.773163         1.156043        -0.104776
 C        -2.150194         0.760621         0.405915
 C        -1.881217        -0.517162        -0.468039
 C        -0.777605        -1.130875         0.366117
 C        -0.009293         0.049362         0.738817
 O         0.870513         0.329216         1.534521
 C        -1.099261         0.413213        -1.395581
 O        -1.904350         1.272614        -2.269360
 H        -0.806430         3.139963         0.798931
 H         0.811152         2.572942         0.121541
 H        -0.559342         3.031597        -1.000836
 H        -2.209718         0.765418         1.438323
 H        -3.017098         1.301183        -0.019206
 H        -2.760120        -1.138533        -0.640646
 H        -1.172435        -1.691101         1.255099
 H        -0.211936        -1.934174        -0.243757
 H        -0.142052         0.066900        -1.915030
 H        -2.136835         0.740453        -3.095756
