19
Iteration:  2020charge 0 multiplicity 1
 C        -0.248480         2.498748        -0.246640
 C        -0.699303         1.113422        -0.155166
 C        -2.103178         0.746939         0.521503
 C        -1.892566        -0.451652        -0.452763
 C        -0.632109        -1.169182         0.185640
 C         0.115209         0.098456         0.683504
 O         0.770200         0.285547         1.712483
 C        -1.197968         0.448072        -1.416656
 O        -2.072594         1.323647        -2.068497
 H         0.737490         2.422926         0.027809
 H        -0.187434         2.975347        -1.258891
 H        -0.724201         3.194833         0.454062
 H        -2.016202         0.506929         1.632642
 H        -2.902052         1.431859         0.275286
 H        -2.621301        -1.229371        -0.705950
 H        -1.010739        -1.791292         0.970111
 H        -0.082988        -1.611423        -0.629376
 H        -0.571433        -0.068962        -2.179712
 H        -2.366291         1.026649        -2.969748
