19
Iteration:  1472charge 0 multiplicity 1
 C        -0.041361         2.636614        -0.186149
 C        -0.702376         1.321124        -0.163870
 C        -2.018526         0.756021         0.614351
 C        -1.877772        -0.529082        -0.411420
 C        -0.626877        -1.209170         0.155872
 C         0.115311         0.021516         0.604162
 O         0.955505         0.120644         1.456119
 C        -1.299258         0.472517        -1.404662
 O        -2.468731         1.289963        -1.892698
 H         0.304682         3.159458        -1.118972
 H        -0.773074         3.343810         0.213901
 H         0.884248         2.603048         0.496253
 H        -2.085920         0.610192         1.697665
 H        -2.760539         1.505139         0.416960
 H        -2.571093        -1.269064        -0.825724
 H        -0.690034        -1.981140         0.979763
 H        -0.066922        -1.543807        -0.824158
 H        -0.678046         0.246094        -2.382928
 H        -2.434842         1.134640        -2.816578
