19
Iteration:  2719
 C        -0.490193         2.676087         0.231818
 C        -0.860597         1.217701         0.152878
 C        -2.335360         0.841414         0.259669
 C        -1.959213        -0.454294        -0.435342
 C        -0.942212        -1.079408         0.547949
 C        -0.073132         0.168355         0.775697
 O         1.063413         0.219940         1.199239
 C        -0.972151         0.370657        -1.337587
 O        -1.479565         0.984015        -2.512693
 H        -1.382131         3.251936         0.593331
 H         0.263843         2.738275         1.024621
 H        -0.011871         3.061955        -0.720172
 H        -2.896481         0.781605         1.155401
 H        -2.902189         1.475911        -0.361421
 H        -2.713051        -1.165754        -0.786000
 H        -1.570332        -1.391344         1.368922
 H        -0.363696        -1.864406         0.049382
 H        -0.169682        -0.259880        -1.821890
 H        -2.455398         1.231432        -2.505805
