19
Iteration:  2945
 C        -0.312375         2.623968        -0.001840
 C        -0.856219         1.188765        -0.035209
 C        -2.329808         0.830498         0.210426
 C        -1.909252        -0.504660        -0.380377
 C        -0.734332        -1.214932         0.419498
 C        -0.143779         0.159071         0.821383
 O         0.803631         0.286808         1.543597
 C        -0.990256         0.399521        -1.315824
 O        -1.565369         1.112195        -2.432052
 H         0.570285         2.773885         0.617337
 H        -0.118098         2.947184        -1.023267
 H        -1.157297         3.280935         0.318735
 H        -2.764793         0.814958         1.257750
 H        -3.113499         1.468326        -0.344462
 H        -2.649941        -1.178858        -0.919237
 H        -1.007586        -1.898690         1.236370
 H        -0.132170        -1.808695        -0.258609
 H        -0.126708         0.015508        -1.757496
 H        -2.467662         1.426796        -2.192655
