19
Iteration:   360
 C         0.163257         2.450593        -0.308970
 C        -0.644421         1.194621        -0.200156
 C        -1.713971         0.646680         0.999995
 C        -2.026312        -0.498397        -0.101251
 C        -0.612604        -1.204697        -0.055240
 C         0.224880         0.094608         0.155417
 O         1.303064         0.111293         0.695960
 C        -1.716018         0.609487        -1.119928
 O        -2.926167         1.418442        -1.395038
 H        -0.018749         3.133238         0.560795
 H         1.213488         2.102190        -0.566875
 H        -0.297372         2.877338        -1.292999
 H        -1.356550         0.356553         2.002335
 H        -2.482478         1.401533         1.164964
 H        -2.927274        -1.010713        -0.237885
 H        -0.262908        -1.987128         0.676601
 H        -0.444634        -1.543534        -1.114893
 H        -1.319600         0.392118        -2.176986
 H        -2.728833         2.300722        -0.937571
