19
Iteration:   986
 C        -0.012402         2.555140         0.003271
 C        -0.714834         1.279970        -0.054520
 C        -2.096436         0.790558         0.789892
 C        -1.986753        -0.412585        -0.192826
 C        -0.748509        -1.130219         0.237385
 C         0.146348         0.090301         0.427851
 O         1.320132         0.101059         0.746786
 C        -1.447280         0.467990        -1.248463
 O        -2.454037         1.149724        -1.970840
 H        -0.309097         3.069715         0.917103
 H         1.063930         2.284060        -0.070889
 H        -0.112244         3.317309        -0.887499
 H        -1.938671         0.822459         1.875576
 H        -2.937115         1.460344         0.612515
 H        -2.893737        -0.949215        -0.389070
 H        -0.796020        -1.539853         1.236587
 H        -0.279298        -1.936607        -0.454325
 H        -0.859134        -0.119160        -1.995604
 H        -2.957489         1.891282        -1.496730
