19
Iteration:  3662
 C        -0.315970         2.685112         0.080744
 C        -0.828065         1.220111        -0.054713
 C        -2.219104         0.742117         0.245150
 C        -1.906255        -0.571096        -0.548581
 C        -0.901272        -1.117322         0.573065
 C        -0.081996         0.153647         0.798312
 O         0.852238         0.262537         1.523335
 C        -1.001322         0.398641        -1.367273
 O        -1.688044         1.137778        -2.406532
 H         0.759386         2.693155         0.338284
 H        -0.399167         3.255651        -0.871668
 H        -0.859220         3.194668         0.870544
 H        -2.722179         0.630343         1.302107
 H        -3.023077         1.206068        -0.420550
 H        -2.665149        -1.083727        -1.034520
 H        -1.412991        -1.455086         1.484160
 H        -0.330207        -1.931003         0.145139
 H        -0.066842         0.062122        -1.721826
 H        -1.334924         0.903013        -3.343683
