19
Iteration:  2050
 C        -0.160249         2.697542        -0.072410
 C        -0.633351         1.160621        -0.152659
 C        -2.137613         0.721165         0.433091
 C        -1.837647        -0.514624        -0.420423
 C        -0.651327        -1.254458         0.322945
 C        -0.040264         0.073100         0.648947
 O         0.772309         0.283113         1.503759
 C        -1.189620         0.433628        -1.369724
 O        -2.051291         1.300243        -2.125607
 H         0.988111         2.640567        -0.143659
 H        -0.658840         3.300055        -0.923707
 H        -0.431642         3.069032         0.967133
 H        -2.334151         0.635689         1.452668
 H        -2.823050         1.368951        -0.081814
 H        -2.624460        -1.202030        -0.726291
 H        -1.078788        -1.870590         1.188029
 H         0.048929        -1.920935        -0.345916
 H        -0.531385        -0.033091        -2.092289
 H        -2.770675         0.896597        -2.679696
