19
Iteration:  2964charge 0 multiplicity 1
 C        -0.472476         2.759162         0.036228
 C        -0.863366         1.208209        -0.005984
 C        -2.351516         0.807366         0.220660
 C        -1.979207        -0.569031        -0.477412
 C        -0.896226        -1.168792         0.494481
 C         0.028560         0.093213         0.791700
 O         0.957991         0.259830         1.549649
 C        -0.999813         0.352422        -1.381797
 O        -1.498090         1.110081        -2.445508
 H         0.537418         2.828305         0.588606
 H        -0.116846         3.188610        -0.988498
 H        -1.165378         3.382293         0.633062
 H        -2.870791         1.098125         1.183850
 H        -3.019005         1.281669        -0.556116
 H        -2.722530        -1.259042        -0.732936
 H        -1.356251        -1.618201         1.391610
 H        -0.306271        -1.958638        -0.053723
 H        -0.107101        -0.154489        -1.826397
 H        -2.284245         1.510712        -2.108656
