19
Iteration:   219
 C        -0.023707         2.558355         0.184822
 C        -0.746524         1.216826         0.201825
 C        -1.886237         0.728938         1.074362
 C        -1.984908        -0.508720         0.026193
 C        -0.736751        -1.249320         0.300186
 C         0.174615         0.043516         0.118737
 O         1.337265         0.118114        -0.299390
 C        -1.595500         0.561086        -1.091190
 O        -2.500955         1.359907        -1.709333
 H         0.984237         2.470942         0.641261
 H         0.183988         2.909104        -0.838474
 H        -0.676285         3.233861         0.795200
 H        -1.825504         0.626917         2.118298
 H        -2.831423         1.200060         0.852550
 H        -2.997877        -0.900978        -0.022131
 H        -0.751432        -1.540043         1.380582
 H        -0.564493        -2.097734        -0.416302
 H        -0.850801         0.293767        -1.862592
 H        -2.941629         1.958731        -1.001996
