19
Iteration:  3348
 C        -0.459804         2.756149         0.216161
 C        -0.878204         1.300049         0.083706
 C        -2.355346         0.755948         0.224603
 C        -1.903692        -0.575844        -0.502189
 C        -0.974707        -1.144295         0.513290
 C        -0.110346         0.183584         0.763720
 O         0.939520         0.305487         1.404664
 C        -0.894807         0.302267        -1.425592
 O        -1.469316         1.009448        -2.523830
 H         0.586189         2.693024         0.001768
 H        -0.931951         3.586195        -0.149726
 H        -0.453845         2.958138         1.317661
 H        -2.562218         0.680785         1.313743
 H        -3.152131         1.308861        -0.435464
 H        -2.740679        -1.338115        -0.909491
 H        -1.469630        -1.409004         1.516481
 H        -0.234651        -1.958301         0.098659
 H        -0.110932        -0.271386        -1.758813
 H        -1.993969         1.786095        -2.252852
