19
Iteration:  4643
 C        -0.400837         2.635863        -0.042544
 C        -0.829244         1.218513         0.042526
 C        -2.393305         0.845723         0.243269
 C        -1.897274        -0.484016        -0.495898
 C        -0.918117        -1.141462         0.460106
 C        -0.095168         0.111814         0.820665
 O         0.880633         0.276200         1.525793
 C        -0.881686         0.342758        -1.291162
 O        -1.596613         1.109848        -2.404442
 H         0.455646         2.732304        -0.653653
 H        -1.110778         3.347333        -0.369131
 H        -0.124094         2.988181         0.936284
 H        -2.677899         0.649137         1.392590
 H        -3.185196         1.365234        -0.303775
 H        -2.614809        -1.095391        -0.975991
 H        -1.370619        -1.436747         1.433652
 H        -0.445984        -2.015068        -0.039552
 H         0.041110        -0.131287        -1.608151
 H        -0.997596         1.083690        -3.258742
