19
Iteration:  3362charge 0 multiplicity 1
 C        -0.409585         2.657646         0.239151
 C        -0.851112         1.202621        -0.009652
 C        -2.304410         0.782917         0.239438
 C        -1.917193        -0.477554        -0.484773
 C        -0.852441        -1.107451         0.433154
 C        -0.090793         0.180648         0.800776
 O         0.871338         0.327403         1.463065
 C        -1.010216         0.338677        -1.374561
 O        -1.500175         0.968347        -2.515325
 H         0.609949         2.942680        -0.113204
 H        -1.161647         3.093138        -0.484155
 H        -0.589407         2.981669         1.332619
 H        -2.885079         0.755283         1.185798
 H        -2.966709         1.469098        -0.376753
 H        -2.679540        -1.122376        -0.972215
 H        -1.355353        -1.577652         1.329829
 H        -0.299076        -1.965748         0.012953
 H         0.001817        -0.055639        -1.625000
 H        -1.848645         1.824581        -2.250432
