19
Iteration:  1492charge 0 multiplicity 1
 C        -0.150671         2.536521        -0.164527
 C        -0.657630         1.175060        -0.088715
 C        -2.002591         0.702557         0.605197
 C        -1.887480        -0.488952        -0.345600
 C        -0.590035        -1.177717         0.120962
 C         0.142633         0.134944         0.558795
 O         0.948735         0.120730         1.457511
 C        -1.384844         0.508518        -1.417373
 O        -2.358068         1.380670        -1.961255
 H        -0.196221         3.013386        -1.262536
 H        -0.537761         3.320604         0.551720
 H         0.965557         2.617855        -0.147021
 H        -2.095386         0.539116         1.734301
 H        -2.952636         1.222195         0.428501
 H        -2.827219        -0.999893        -0.406756
 H        -0.753362        -1.774416         1.013782
 H        -0.108639        -1.726628        -0.675404
 H        -0.544360         0.087729        -2.138118
 H        -2.520216         1.003955        -2.916551
