19
Iteration:  2593charge 0 multiplicity 1
 C        -0.190665         2.622686        -0.105685
 C        -0.721781         1.251872        -0.013159
 C        -2.254948         0.736914         0.369046
 C        -1.919439        -0.480137        -0.505963
 C        -0.777092        -1.164955         0.282664
 C         0.031396         0.098856         0.798871
 O         0.787057         0.287204         1.771455
 C        -1.084124         0.463240        -1.372668
 O        -1.846515         1.103626        -2.469875
 H        -0.220796         2.901398        -1.174399
 H        -0.740429         3.414081         0.457675
 H         0.804872         2.708255         0.262453
 H        -2.400826         0.455010         1.369458
 H        -3.031870         1.393081        -0.007849
 H        -2.760179        -1.183225        -0.815122
 H        -1.179538        -1.688957         1.197714
 H        -0.071393        -1.873118        -0.227104
 H        -0.165570         0.033285        -1.759322
 H        -2.758202         1.260204        -2.228327
