19
Iteration:   905charge 0 multiplicity 1
 C        -0.101537         2.577750        -0.469836
 C        -0.680443         1.234776        -0.205806
 C        -1.907713         0.757817         0.800540
 C        -1.896043        -0.491534        -0.253051
 C        -0.692529        -1.302847         0.062650
 C         0.211394        -0.012827         0.449522
 O         1.199884         0.120418         1.156844
 C        -1.539604         0.495026        -1.248753
 O        -2.492544         1.486193        -1.556627
 H        -0.616494         2.933515        -1.352788
 H        -0.390175         3.263339         0.294198
 H         0.898545         2.514237        -0.746959
 H        -1.735348         0.643226         1.821781
 H        -2.751970         1.365738         0.531236
 H        -2.848527        -1.077494        -0.182957
 H        -0.789423        -1.962377         1.018370
 H        -0.165337        -1.889864        -0.777319
 H        -1.037536         0.116688        -2.112541
 H        -3.082073         1.308942        -2.370816
