19
Iteration:  1191
 C        -0.078466         2.635741        -0.342549
 C        -0.577468         1.196922        -0.150298
 C        -1.918773         0.706358         0.701580
 C        -1.964794        -0.542753        -0.229570
 C        -0.583765        -1.286387         0.087309
 C         0.149503         0.031577         0.473609
 O         0.976297         0.171974         1.369279
 C        -1.423305         0.536170        -1.301849
 O        -2.514333         1.404651        -1.804976
 H        -0.714141         3.164053        -0.985993
 H         0.093737         3.206498         0.566382
 H         0.910737         2.586160        -0.943383
 H        -1.877172         0.558538         1.783421
 H        -2.609699         1.515373         0.547627
 H        -2.883241        -1.136092        -0.608027
 H        -0.600976        -2.084647         0.748163
 H        -0.105345        -1.628427        -0.718793
 H        -0.960504         0.044693        -2.119301
 H        -2.372104         1.233796        -2.804775
