19
Iteration:  3950charge 0 multiplicity 1
 C        -0.158202         2.572242         0.071482
 C        -0.802447         1.208093         0.010297
 C        -2.286147         0.754283         0.160456
 C        -1.917140        -0.514197        -0.507610
 C        -0.815071        -1.117070         0.516567
 C        -0.179413         0.160526         0.830896
 O         0.768243         0.357074         1.560739
 C        -0.990366         0.363340        -1.410795
 O        -1.751464         1.112339        -2.396442
 H         0.778034         2.653480        -0.368061
 H        -0.815773         3.227795        -0.332769
 H        -0.060127         2.731760         1.169192
 H        -2.910332         0.929076         1.146399
 H        -2.835378         1.286580        -0.602966
 H        -2.413192        -1.368756        -1.097377
 H        -1.398092        -1.681927         1.293029
 H        -0.073081        -1.871253         0.147539
 H        -0.063291        -0.195994        -1.800117
 H        -1.176702         1.668487        -2.900477
