19
Iteration:  1844charge 0 multiplicity 1
 C        -0.372686         2.609238         0.036578
 C        -0.865889         1.163057         0.067904
 C        -2.351068         0.730177         0.483949
 C        -2.001711        -0.470522        -0.352790
 C        -0.894256        -1.134624         0.533591
 C         0.088720         0.121803         0.679452
 O         1.281351         0.172340         1.041494
 C        -1.208987         0.401022        -1.414976
 O        -1.816764         1.296424        -2.199527
 H        -1.098023         3.325230         0.194334
 H         0.461700         2.990464         0.672636
 H         0.043572         2.997733        -0.933194
 H        -2.434175         0.349687         1.602587
 H        -3.241646         1.363914         0.180094
 H        -2.844252        -1.169852        -0.515573
 H        -1.319604        -1.666037         1.351212
 H        -0.307748        -1.869320         0.014046
 H        -0.319445        -0.003940        -1.948002
 H        -1.569800         1.155872        -3.165872
