19
Iteration:  3501
 C        -0.264292         2.649443         0.020219
 C        -0.750759         1.237356         0.008129
 C        -2.257514         0.719158         0.304659
 C        -1.904918        -0.559396        -0.520470
 C        -0.844779        -1.122968         0.402735
 C        -0.111132         0.118853         0.785580
 O         0.746718         0.329987         1.690554
 C        -0.956631         0.472264        -1.359697
 O        -1.751851         1.070879        -2.482113
 H         0.715957         2.974812        -0.221121
 H        -0.925999         3.262433        -0.484872
 H        -0.399037         2.965686         1.097253
 H        -2.471364         0.824418         1.364478
 H        -3.001458         1.398750        -0.203317
 H        -2.739774        -1.242272        -1.095026
 H        -1.157776        -1.799842         1.243448
 H        -0.077908        -1.740377        -0.149181
 H        -0.047222         0.069963        -1.937074
 H        -1.215745         0.711194        -3.301810
