19
Iteration:  3705charge 0 multiplicity 1
 C        -0.169833         2.560257        -0.083134
 C        -0.779734         1.185525        -0.019747
 C        -2.265014         0.713670         0.193516
 C        -1.897397        -0.578328        -0.556700
 C        -0.876437        -1.159903         0.324840
 C        -0.090360         0.283767         0.851409
 O         0.729650         0.376057         1.715575
 C        -1.001116         0.359889        -1.380082
 O        -1.794725         1.105031        -2.269652
 H         0.865738         2.297834        -0.326631
 H        -0.588774         3.237243        -0.851631
 H        -0.180954         2.962251         0.844170
 H        -2.621538         0.592667         1.343181
 H        -2.748757         1.554448        -0.441441
 H        -2.632265        -1.157337        -0.969363
 H        -1.259306        -1.699307         1.202960
 H         0.020718        -1.693060        -0.016359
 H        -0.167925        -0.050229        -1.931517
 H        -1.176545         1.892260        -2.603711
