19
Iteration:  3425
 C        -0.283495         2.569439        -0.110873
 C        -0.786018         1.198127        -0.156086
 C        -2.282761         0.669754         0.319718
 C        -1.780257        -0.567939        -0.536868
 C        -0.803758        -1.153797         0.404704
 C        -0.082980         0.165407         0.799921
 O         0.664776         0.348439         1.817877
 C        -0.938864         0.425102        -1.431198
 O        -1.718864         1.196613        -2.403189
 H         0.768293         2.540876        -0.206796
 H        -0.549562         3.133328        -0.911544
 H        -0.430926         3.179599         0.788148
 H        -2.560766         0.389979         1.355407
 H        -3.155469         1.331239        -0.154325
 H        -2.559017        -1.327403        -1.073880
 H        -1.182531        -1.668993         1.349457
 H        -0.084984        -1.873283        -0.154317
 H         0.016411         0.334307        -1.889077
 H        -2.376324         1.582291        -1.871606
