19
Iteration:  2851charge 0 multiplicity 1
 C        -0.249885         2.702508        -0.026010
 C        -0.694430         1.204026        -0.038939
 C        -2.250307         0.760932         0.280207
 C        -1.890829        -0.564633        -0.532327
 C        -0.838812        -1.175108         0.375276
 C        -0.069782         0.144609         0.843229
 O         0.744426         0.302229         1.720947
 C        -1.056486         0.374152        -1.324767
 O        -1.718240         1.105900        -2.482463
 H         0.469681         2.950498         0.815954
 H         0.171409         2.945188        -1.052104
 H        -1.178125         3.342808         0.033152
 H        -2.512067         0.736179         1.332805
 H        -2.878354         1.479866        -0.211154
 H        -2.557953        -1.270220        -1.082202
 H        -1.114275        -1.947978         1.136162
 H        -0.213780        -1.778592        -0.343876
 H        -0.125710        -0.072965        -1.868621
 H        -2.348895         1.737641        -2.155807
