19
Iteration:    93
 C        -0.110038         2.532017        -0.264663
 C        -0.675040         1.145386        -0.150609
 C        -1.665300         0.545337         1.051775
 C        -1.997929        -0.545619        -0.071892
 C        -0.608007        -1.259158        -0.187797
 C         0.294725        -0.030539         0.089911
 O         1.415698         0.072213         0.471740
 C        -1.756761         0.674766        -1.099195
 O        -2.836258         1.645634        -1.227173
 H        -0.361539         2.822455        -1.341327
 H        -0.434467         3.329674         0.484053
 H         0.978502         2.256107        -0.127939
 H        -1.121579         0.228538         2.009102
 H        -2.396810         1.375781         1.285981
 H        -2.986914        -1.106414        -0.059836
 H        -0.478626        -2.077423         0.569014
 H        -0.274513        -1.686644        -1.178757
 H        -1.375725         0.395603        -2.155633
 H        -3.086581         2.247791        -0.484787
