19
Iteration:   618
 C         0.045253         2.439708        -0.383816
 C        -0.723489         1.157675        -0.144687
 C        -1.798979         0.668983         0.968476
 C        -1.994152        -0.526237        -0.135704
 C        -0.606038        -1.203448        -0.011402
 C         0.182615         0.024673         0.241182
 O         1.192166         0.137389         0.895334
 C        -1.586088         0.599459        -1.259489
 O        -2.654944         1.562739        -1.452540
 H         1.157443         2.279677        -0.629143
 H        -0.571845         2.945063        -1.250387
 H        -0.079507         3.141932         0.412050
 H        -1.357868         0.473484         1.859750
 H        -2.578371         1.340895         1.202517
 H        -2.935919        -1.080869        -0.261950
 H        -0.383623        -1.905341         0.865988
 H        -0.183262        -1.716690        -0.831359
 H        -1.176640         0.207347        -2.243919
 H        -3.205007         1.206033        -2.162353
