19
Iteration:  4152
 C        -0.545918         2.721358         0.192663
 C        -0.877148         1.255958         0.016253
 C        -2.407798         0.911537         0.254646
 C        -1.899688        -0.464668        -0.444343
 C        -1.009329        -1.109669         0.579024
 C        -0.073125         0.130242         0.798429
 O         1.020814         0.126469         1.268553
 C        -0.968998         0.374816        -1.305939
 O        -1.419889         0.944572        -2.503392
 H         0.369750         2.937565        -0.335880
 H        -1.305834         3.309035        -0.286032
 H        -0.536928         3.105243         1.110803
 H        -2.555226         0.816250         1.409780
 H        -3.177368         1.684818        -0.290878
 H        -2.575326        -1.022911        -1.154957
 H        -1.682481        -1.279679         1.449934
 H        -0.440186        -1.984521         0.329278
 H         0.048858        -0.120012        -1.428930
 H        -0.840098         1.581613        -2.811208
