19
Iteration:  3445charge 0 multiplicity 1
 C        -0.210616         2.570538        -0.096094
 C        -0.749086         1.172278        -0.026200
 C        -2.242944         0.677974         0.222411
 C        -1.804330        -0.547799        -0.590563
 C        -0.706600        -1.208237         0.387221
 C        -0.167341         0.124542         0.876810
 O         0.655959         0.429663         1.800445
 C        -1.012565         0.397719        -1.465531
 O        -1.743704         1.226983        -2.325136
 H         0.858203         2.616681        -0.279630
 H        -0.753648         2.977002        -0.954576
 H        -0.529282         3.241110         0.725026
 H        -2.474744         0.665077         1.284534
 H        -2.747035         1.547340        -0.267557
 H        -2.575590        -1.288966        -1.141726
 H        -1.318519        -1.794602         1.080188
 H         0.049334        -1.820141        -0.148187
 H        -0.183351        -0.140809        -2.065719
 H        -2.676370         1.266802        -2.186401
