19
Iteration:  3454
 C        -0.223597         2.598008        -0.061162
 C        -0.680094         1.129628        -0.077922
 C        -2.272582         0.716354         0.259437
 C        -1.826836        -0.604464        -0.582853
 C        -0.753239        -1.193723         0.369727
 C        -0.109468         0.192241         0.880468
 O         0.621005         0.400297         1.767471
 C        -1.034622         0.358005        -1.420304
 O        -1.735322         1.241944        -2.340077
 H         0.896503         2.710589        -0.258353
 H        -0.666899         3.097133        -1.045507
 H        -0.380909         3.250000         0.818226
 H        -2.824763         0.559471         1.172593
 H        -2.689575         1.561497        -0.260355
 H        -2.474837        -1.338013        -1.053167
 H        -1.016540        -1.872544         1.148957
 H         0.021180        -1.696491        -0.159575
 H        -0.062650         0.143457        -2.034847
 H        -2.647852         0.975405        -2.228505
