19
Iteration:   285
 C        -0.257657         2.691364        -0.078815
 C        -0.682137         1.222353        -0.039800
 C        -1.733201         0.699062         0.988852
 C        -2.068001        -0.433786        -0.018993
 C        -0.733209        -1.297232         0.177068
 C         0.296745         0.001550         0.087431
 O         1.494124        -0.117233         0.233056
 C        -1.649035         0.576005        -1.142788
 O        -2.639685         1.524468        -1.423471
 H        -0.370696         3.095379        -1.102095
 H        -0.973346         3.213335         0.510105
 H         0.739402         2.824054         0.471218
 H        -1.353910         0.487387         1.935791
 H        -2.454230         1.491033         0.946350
 H        -3.011952        -0.967737        -0.044366
 H        -0.438666        -1.830908         1.092866
 H        -0.364682        -1.993308        -0.660738
 H        -1.200706         0.174856        -2.106201
 H        -2.802699         1.489633        -2.352727
