19
Iteration:  2262
 C        -0.108533         2.654466        -0.005503
 C        -0.720082         1.214913        -0.094385
 C        -2.160819         0.704111         0.443639
 C        -1.921460        -0.504881        -0.451345
 C        -0.799699        -1.229590         0.339918
 C         0.025703         0.125162         0.705064
 O         0.864203         0.325518         1.552529
 C        -1.124730         0.420144        -1.434140
 O        -2.083322         1.107543        -2.329886
 H        -0.718175         3.439024        -0.505357
 H         0.060156         2.982479         1.042029
 H         0.951829         2.820054        -0.393644
 H        -2.366228         0.519435         1.440782
 H        -2.954296         1.331010        -0.018539
 H        -2.803581        -1.114029        -0.813262
 H        -1.098399        -1.686364         1.303226
 H        -0.163393        -1.906915        -0.267482
 H        -0.262841         0.017038        -1.907789
 H        -1.910056         2.065632        -2.149326
