19
Iteration:  2392charge 0 multiplicity 1
 C        -0.352302         2.575438         0.120217
 C        -0.888659         1.232760         0.120671
 C        -2.326103         0.835431         0.286912
 C        -1.880123        -0.506322        -0.408217
 C        -0.871602        -1.103366         0.470706
 C        -0.049887         0.141060         0.712544
 O         1.025113         0.231740         1.258510
 C        -1.015116         0.468694        -1.347892
 O        -1.728680         1.115349        -2.376518
 H         0.045356         2.806512         1.131895
 H         0.598118         2.583557        -0.430062
 H        -0.976794         3.478172        -0.122317
 H        -2.722656         0.674756         1.348074
 H        -3.024045         1.494005        -0.348871
 H        -2.464916        -1.280020        -0.876806
 H        -1.279033        -1.617871         1.393836
 H        -0.138014        -1.905059         0.031506
 H        -0.085258        -0.027824        -1.814179
 H        -2.559390         0.535138        -2.557544
