19
Iteration:  3853
 C        -0.441817         2.700441         0.108344
 C        -0.911135         1.209248         0.141177
 C        -2.317767         0.846137         0.165110
 C        -1.967792        -0.586864        -0.505869
 C        -1.013248        -1.116318         0.552685
 C        -0.137127         0.139525         0.756618
 O         0.932719         0.251892         1.313112
 C        -0.847036         0.328500        -1.283864
 O        -1.498566         1.083550        -2.401095
 H         0.096457         2.774648        -0.842088
 H        -1.249265         3.474367         0.094091
 H         0.349359         2.862057         0.913732
 H        -2.640568         0.840835         1.309503
 H        -2.947708         1.468198        -0.456727
 H        -2.910473        -1.094656        -0.865559
 H        -1.456991        -1.232943         1.537348
 H        -0.337281        -1.973669         0.414589
 H         0.146585        -0.002198        -1.501112
 H        -0.838432         1.275597        -3.077702
