19
Iteration:   169
 C        -0.099904         2.692056         0.249766
 C        -0.650073         1.215983         0.113285
 C        -1.820416         0.736971         0.959817
 C        -2.067912        -0.468747        -0.039135
 C        -0.656848        -1.221160         0.161446
 C         0.295110        -0.001119         0.060196
 O         1.469696        -0.047144        -0.100398
 C        -1.672079         0.584441        -1.100401
 O        -2.733514         1.394965        -1.487891
 H        -0.398447         3.252577         1.163042
 H         0.988647         2.538126         0.329582
 H        -0.403735         3.250042        -0.666265
 H        -1.614139         0.445753         2.055711
 H        -2.602758         1.539199         0.875662
 H        -3.062270        -1.030102        -0.071892
 H        -0.542054        -1.593025         1.170285
 H        -0.554679        -2.003098        -0.606917
 H        -1.208089         0.053749        -1.958523
 H        -2.796369         1.530941        -2.432854
