19
Iteration:  4439
 C        -0.419358         2.706887         0.208228
 C        -0.841085         1.234351         0.074503
 C        -2.413363         0.843342         0.233728
 C        -1.931830        -0.465264        -0.454227
 C        -1.007421        -1.129425         0.554100
 C        -0.124130         0.113813         0.816289
 O         0.945660         0.271006         1.275870
 C        -0.947871         0.372738        -1.358601
 O        -1.491133         0.993929        -2.483411
 H         0.723764         2.784945         0.019572
 H        -0.939858         3.233176        -0.628118
 H        -0.589537         3.080234         1.185833
 H        -2.730415         0.687530         1.271780
 H        -2.942690         1.551687        -0.305850
 H        -2.619596        -1.224193        -0.814263
 H        -1.334817        -1.390403         1.555248
 H        -0.371168        -1.923373         0.193568
 H        -0.047562        -0.263760        -1.621838
 H        -0.674343         1.119381        -3.098178
