19
Iteration:  4467charge 0 multiplicity 1
 C        -0.303779         2.585496         0.102281
 C        -0.922549         1.247529         0.014572
 C        -2.469232         0.846410         0.107833
 C        -1.882662        -0.547768        -0.523364
 C        -0.921150        -1.091720         0.527423
 C        -0.144711         0.172966         0.843314
 O         0.995590         0.253303         1.392373
 C        -0.996017         0.406190        -1.319671
 O        -1.589843         1.083904        -2.327372
 H         0.725685         2.495607         0.375607
 H        -0.397587         2.995019        -0.903582
 H        -0.696916         3.272709         0.929635
 H        -2.767486         0.702084         1.156179
 H        -3.138794         1.510617        -0.604771
 H        -2.559780        -1.363751        -0.859609
 H        -1.306287        -1.455240         1.524884
 H        -0.148106        -1.874872         0.381069
 H        -0.097065        -0.120171        -1.647356
 H        -0.901293         1.029293        -3.087857
