19
Iteration:  2373charge 0 multiplicity 1
 C        -0.206162         2.711150         0.137895
 C        -0.787645         1.274906        -0.080415
 C        -2.368564         0.728209         0.293917
 C        -1.973794        -0.529751        -0.485580
 C        -0.792555        -1.165119         0.395268
 C        -0.035751         0.188218         0.754011
 O         1.003987         0.255444         1.392821
 C        -1.088171         0.315005        -1.359171
 O        -1.786344         1.150334        -2.248316
 H        -0.353389         3.100810         1.200761
 H         0.833507         2.828069        -0.218621
 H        -0.898244         3.334762        -0.503442
 H        -2.711209         0.751520         1.221446
 H        -2.964830         1.423847        -0.294896
 H        -2.873441        -1.138650        -0.905350
 H        -1.015960        -1.669847         1.347169
 H        -0.191638        -1.949189        -0.178644
 H        -0.159540        -0.217978        -1.781063
 H        -2.584016         0.789196        -2.735695
