19
Iteration:  4376
 C        -0.383060         2.645350         0.047123
 C        -0.887059         1.258060         0.024500
 C        -2.352306         0.869233         0.162164
 C        -1.911992        -0.558703        -0.435555
 C        -0.913922        -1.112400         0.521031
 C        -0.117055         0.157182         0.842299
 O         0.944450         0.213630         1.477990
 C        -0.944110         0.421766        -1.333212
 O        -1.591693         1.012607        -2.444232
 H         0.491104         2.665471        -0.522479
 H        -0.939121         3.496245        -0.261226
 H         0.061575         2.908058         1.019586
 H        -3.103070         0.695048         1.102750
 H        -2.905312         1.410632        -0.597388
 H        -2.604924        -1.176066        -0.964113
 H        -1.428931        -1.585478         1.391713
 H        -0.318960        -1.999376         0.129796
 H        -0.079342        -0.089824        -1.755055
 H        -1.175709         1.896563        -2.688621
