19
Iteration:  4012
 C        -0.206578         2.689720        -0.179421
 C        -0.743234         1.219423        -0.105106
 C        -2.155389         0.813970         0.327938
 C        -1.858718        -0.473548        -0.461887
 C        -0.799503        -1.202429         0.334592
 C        -0.035490         0.100120         0.836232
 O         0.591674         0.231452         1.877360
 C        -1.003328         0.383919        -1.413308
 O        -1.828388         1.096302        -2.414187
 H         0.857715         2.883446         0.244961
 H        -0.323905         3.280792        -1.145286
 H        -0.924639         3.349891         0.474735
 H        -2.217248         0.677469         1.361629
 H        -2.930185         1.358973        -0.194080
 H        -2.625217        -1.158401        -0.963858
 H        -1.147231        -1.886912         1.168437
 H        -0.176307        -1.816917        -0.351853
 H        -0.179974        -0.130629        -1.887010
 H        -1.406655         1.831367        -2.838301
