19
Iteration:   212
 C        -0.043120         2.542498         0.225805
 C        -0.763032         1.224753         0.171286
 C        -1.903344         0.750787         1.021177
 C        -2.028534        -0.463426         0.052152
 C        -0.702061        -1.274169         0.325365
 C         0.198470         0.007563         0.095903
 O         1.359037         0.120149        -0.306756
 C        -1.559870         0.590441        -1.047521
 O        -2.572274         1.342107        -1.726155
 H         0.828703         2.290367         0.844005
 H         0.399161         2.729907        -0.725169
 H        -0.689853         3.363103         0.610258
 H        -1.637352         0.528725         2.106960
 H        -2.806586         1.416613         0.894637
 H        -3.053151        -0.940722        -0.147260
 H        -0.718135        -1.656944         1.300930
 H        -0.265552        -2.033389        -0.352014
 H        -0.865640         0.311741        -1.804651
 H        -2.646811         2.064609        -1.045699
