19
Iteration:  1002charge 0 multiplicity 1
 C        -0.100354         2.542468         0.045132
 C        -0.801072         1.223108         0.064051
 C        -2.095545         0.877405         0.744886
 C        -2.021470        -0.471123        -0.158397
 C        -0.754466        -1.131931         0.422325
 C         0.139085         0.060740         0.371147
 O         1.345596         0.106266         0.566785
 C        -1.371903         0.493644        -1.265639
 O        -2.366736         1.165860        -2.008153
 H         0.057034         3.003103         1.101443
 H         0.942739         2.388528        -0.321965
 H        -0.637401         3.195668        -0.557325
 H        -2.083204         0.617084         1.838099
 H        -2.951381         1.571757         0.465555
 H        -2.941928        -1.066104        -0.427273
 H        -0.947755        -1.610697         1.414520
 H        -0.418207        -1.909593        -0.185172
 H        -0.572311         0.222942        -1.993568
 H        -2.518344         2.107068        -1.646222
