19
Iteration:   947
 C        -0.092074         2.484261        -0.254909
 C        -0.678299         1.155216        -0.159893
 C        -1.804507         0.813546         0.835873
 C        -1.911221        -0.385153        -0.162543
 C        -0.615345        -1.227216         0.067984
 C         0.205671         0.077034         0.401171
 O         1.172263         0.106119         1.134049
 C        -1.576973         0.531761        -1.289928
 O        -2.551132         1.358912        -1.890240
 H        -0.827513         3.347717        -0.026018
 H         0.728505         2.567825         0.462664
 H         0.265704         2.632174        -1.202272
 H        -1.575975         0.602854         1.912266
 H        -2.738337         1.449251         0.733984
 H        -2.854318        -0.947737        -0.389430
 H        -0.930678        -1.768786         1.012892
 H        -0.314551        -1.918342        -0.665586
 H        -1.094019         0.034312        -2.158236
 H        -3.402221         1.184610        -1.505149
