19
Iteration:  1138
 C        -0.003772         2.571578        -0.035431
 C        -0.657764         1.200206        -0.064060
 C        -2.049514         0.799592         0.682750
 C        -1.963307        -0.512600        -0.195600
 C        -0.729904        -1.248455         0.261905
 C         0.132898         0.011490         0.539371
 O         1.263859         0.237708         0.970342
 C        -1.457404         0.544439        -1.371444
 O        -2.457578         1.247162        -2.046467
 H         0.039910         2.952239        -0.996963
 H        -0.701860         3.233198         0.429747
 H         0.962342         2.576622         0.541147
 H        -2.204989         0.766715         1.726552
 H        -2.874707         1.387570         0.312588
 H        -2.861216        -1.175995        -0.458456
 H        -1.084006        -1.771622         1.165751
 H        -0.176690        -2.033620        -0.472123
 H        -0.762118         0.105406        -2.127397
 H        -2.968262         1.819880        -1.392281
