19
Iteration:  1736charge 0 multiplicity 1
 C        -0.045743         2.641873        -0.103534
 C        -0.670515         1.203834        -0.099277
 C        -2.003940         0.708420         0.568368
 C        -1.933353        -0.543473        -0.375461
 C        -0.676653        -1.210036         0.201386
 C         0.036595         0.111490         0.506839
 O         0.813258         0.258350         1.470805
 C        -1.250333         0.471030        -1.412772
 O        -2.266494         1.189026        -2.068226
 H         0.564390         2.525776        -0.971862
 H        -0.776433         3.508925        -0.201687
 H         0.590384         2.715051         0.896220
 H        -1.947695         0.624830         1.652161
 H        -2.834336         1.371377         0.294435
 H        -2.857549        -1.041489        -0.776502
 H        -0.776293        -1.696355         1.134402
 H        -0.043641        -1.759617        -0.461495
 H        -0.555984        -0.086804        -2.042843
 H        -2.077438         2.092609        -2.054264
