19
Iteration:  4178charge 0 multiplicity 1
 C        -0.425933         2.695758         0.084348
 C        -0.847287         1.264601         0.094716
 C        -2.406725         0.741140         0.240009
 C        -1.947185        -0.510754        -0.420383
 C        -1.023896        -1.075985         0.553907
 C        -0.170366         0.213181         0.856889
 O         0.984863         0.171622         1.297584
 C        -0.960937         0.350997        -1.357904
 O        -1.440258         1.033798        -2.460499
 H         0.527813         2.788498        -0.552467
 H        -1.170922         3.449629        -0.284438
 H        -0.165818         3.172601         1.133912
 H        -2.752532         0.536037         1.249460
 H        -3.029097         1.325045        -0.335124
 H        -2.669600        -1.013304        -1.117691
 H        -1.447633        -1.414165         1.528926
 H        -0.345952        -1.855176         0.098542
 H         0.109139         0.006557        -1.473140
 H        -0.852383         1.574454        -2.931222
