19
Iteration:  4076charge 0 multiplicity 1
 C        -0.156045         2.559597         0.051523
 C        -0.887446         1.229759         0.039664
 C        -2.351773         0.733497         0.234095
 C        -1.840172        -0.546899        -0.574349
 C        -0.921002        -1.138180         0.488538
 C        -0.099786         0.149029         0.796123
 O         0.820938         0.367916         1.526098
 C        -0.949410         0.421903        -1.355326
 O        -1.731846         1.076624        -2.388300
 H         0.885286         2.474112         0.487215
 H        -0.176733         3.075698        -0.941518
 H        -0.811592         3.242044         0.640880
 H        -2.758091         0.653646         1.286330
 H        -3.043682         1.500719        -0.282847
 H        -2.607930        -1.139559        -1.143433
 H        -1.442674        -1.323856         1.458203
 H        -0.370959        -2.011254         0.170105
 H        -0.036082        -0.110074        -1.778808
 H        -1.075940         1.633183        -2.928072
