19
Iteration:  4337
 C        -0.166273         2.609417        -0.047120
 C        -0.813273         1.173566        -0.056801
 C        -2.216475         0.706353         0.235273
 C        -1.866254        -0.541669        -0.574750
 C        -0.912504        -1.189487         0.482741
 C        -0.152568         0.131954         0.832898
 O         0.755013         0.409702         1.655245
 C        -0.983312         0.369034        -1.403921
 O        -1.754397         1.193260        -2.332056
 H         0.824539         2.307135        -0.507917
 H        -0.728644         3.344093        -0.684139
 H        -0.156005         3.024235         1.031702
 H        -2.492379         0.541505         1.198934
 H        -3.016131         1.379613        -0.234013
 H        -2.565440        -1.401187        -0.781136
 H        -1.613684        -1.627917         1.212777
 H        -0.226498        -1.907571         0.066845
 H         0.020255         0.046366        -1.752340
 H        -1.211714         1.555611        -2.999856
