19
Iteration:  3287charge 0 multiplicity 1
 C        -0.474963         2.773665         0.071236
 C        -0.831131         1.259487         0.083241
 C        -2.536926         0.727649         0.174685
 C        -1.916169        -0.542387        -0.503775
 C        -0.979069        -1.165544         0.522734
 C        -0.113643         0.202634         0.867784
 O         1.015033         0.233232         1.233668
 C        -0.929649         0.348300        -1.239221
 O        -1.335135         1.111629        -2.327677
 H         0.619884         2.983284        -0.058118
 H        -0.979710         3.330796        -0.805795
 H        -0.782355         3.054199         1.140770
 H        -3.020204         0.635879         1.159535
 H        -3.170613         1.295408        -0.488557
 H        -2.480930        -1.246173        -1.048098
 H        -1.547834        -1.544258         1.340984
 H        -0.261561        -1.894752         0.243545
 H        -0.026757        -0.222992        -1.826217
 H        -2.303736         0.860701        -2.542578
