19
Iteration:  4064charge 0 multiplicity 1
 C        -0.198140         2.624706        -0.029511
 C        -0.786512         1.148677        -0.048590
 C        -2.298916         0.783817         0.266194
 C        -1.911177        -0.472133        -0.554497
 C        -0.886907        -1.201563         0.431266
 C        -0.145555         0.175790         0.854586
 O         0.798714         0.356805         1.620139
 C        -0.949560         0.358265        -1.387524
 O        -1.752062         1.094605        -2.355969
 H         0.781727         2.557730         0.483322
 H         0.007609         3.083882        -1.020609
 H        -0.719631         3.255614         0.655803
 H        -2.556470         0.493064         1.349578
 H        -3.091442         1.366813        -0.414587
 H        -2.647787        -1.122995        -1.029187
 H        -1.554432        -1.721414         1.135429
 H        -0.097978        -1.890831         0.180744
 H         0.100321         0.032619        -1.764735
 H        -1.330590         1.725633        -2.845982
