19
Iteration:  3204
 C        -0.207039         2.580086        -0.018523
 C        -0.788312         1.211644        -0.071782
 C        -2.265834         0.789264         0.183193
 C        -1.774472        -0.511070        -0.471882
 C        -0.725430        -1.141461         0.418521
 C        -0.111276         0.109392         0.779653
 O         0.623696         0.313867         1.703827
 C        -1.009127         0.448894        -1.439159
 O        -1.812855         1.113825        -2.293118
 H         0.861278         2.557991         0.149193
 H        -0.571833         3.318316        -0.744253
 H        -0.551745         3.083745         0.860686
 H        -2.460901         0.842453         1.288694
 H        -2.870041         1.470016        -0.393399
 H        -2.454996        -1.272479        -0.951768
 H        -1.113102        -1.754115         1.305134
 H        -0.023549        -1.704160        -0.277725
 H        -0.115048         0.117647        -1.963014
 H        -1.584190         0.672686        -3.059748
