19
Iteration:   568
 C        -0.259104         2.573963        -0.114136
 C        -0.723171         1.176501         0.031166
 C        -1.853617         0.807280         0.864460
 C        -1.989749        -0.442779        -0.103756
 C        -0.714344        -1.193561         0.212125
 C         0.264060        -0.040934         0.218994
 O         1.439432        -0.045890         0.468743
 C        -1.558876         0.566394        -1.167262
 O        -2.535740         1.498820        -1.623908
 H         0.085015         2.828490         0.877610
 H         0.552865         2.671952        -0.778178
 H        -1.111763         3.222542        -0.403546
 H        -1.789624         0.588373         2.034628
 H        -2.575686         1.663573         0.811580
 H        -2.902087        -1.023110        -0.168327
 H        -0.751273        -1.823232         1.077502
 H        -0.512739        -1.953169        -0.650038
 H        -0.940562         0.246593        -2.006255
 H        -2.968466         0.984769        -2.290558
