19
Iteration:  4372charge 0 multiplicity 1
 C        -0.357855         2.624067         0.047500
 C        -0.882863         1.249824        -0.006245
 C        -2.376109         0.848659         0.141432
 C        -1.907775        -0.532791        -0.437784
 C        -0.905783        -1.089499         0.530884
 C        -0.116919         0.133999         0.813337
 O         0.925119         0.234509         1.496653
 C        -0.921696         0.413310        -1.328084
 O        -1.611368         1.039139        -2.394895
 H         0.608124         2.655268        -0.579389
 H        -0.978201         3.444579        -0.362741
 H         0.086336         2.828835         0.979957
 H        -2.924362         0.622721         1.048844
 H        -3.011133         1.358796        -0.567028
 H        -2.597508        -1.274255        -0.915829
 H        -1.433385        -1.625333         1.298225
 H        -0.405117        -1.912310         0.088788
 H         0.016462        -0.048054        -1.627145
 H        -1.227414         1.810736        -2.786069
