19
Iteration:  2761
 C        -0.416045         2.680671         0.169725
 C        -0.892621         1.275903         0.033675
 C        -2.384630         0.731360         0.209524
 C        -1.911391        -0.496128        -0.479542
 C        -0.947639        -1.057027         0.570595
 C        -0.102239         0.135742         0.794703
 O         1.037676         0.197419         1.248671
 C        -0.963344         0.391256        -1.299460
 O        -1.540533         1.027669        -2.452247
 H        -0.927099         3.146471         1.025966
 H         0.645193         2.696009         0.430820
 H        -0.419879         3.377772        -0.728006
 H        -2.792860         0.755388         1.193947
 H        -3.006699         1.377032        -0.395224
 H        -2.600741        -1.196204        -1.095287
 H        -1.366568        -1.210452         1.606672
 H        -0.316526        -1.913309         0.218214
 H         0.066937        -0.062403        -1.530704
 H        -2.284586         1.492189        -2.140251
