19
Iteration:  1583charge 0 multiplicity 1
 C        -0.347324         2.679908         0.284520
 C        -0.828874         1.216484         0.097584
 C        -2.245179         0.837972         0.466866
 C        -1.921841        -0.504964        -0.385980
 C        -0.837667        -1.131051         0.530110
 C         0.024142         0.083460         0.616994
 O         1.262447         0.107649         0.734650
 C        -1.155354         0.502382        -1.282015
 O        -2.014986         1.191976        -2.162074
 H        -1.049262         3.143062         0.877896
 H         0.669202         2.605248         0.640131
 H        -0.507936         3.155112        -0.757612
 H        -2.438261         0.673053         1.473278
 H        -3.100392         1.366418         0.063515
 H        -2.691272        -1.236759        -0.737753
 H        -1.179923        -1.627004         1.476807
 H        -0.242844        -1.997200         0.100274
 H        -0.202596         0.153188        -1.858540
 H        -1.940319         0.777117        -3.057329
