19
Iteration:  1695charge 0 multiplicity 1
 C        -0.313638         2.505209        -0.101402
 C        -0.778121         1.142523        -0.029109
 C        -2.142629         0.778938         0.513737
 C        -1.969178        -0.469643        -0.389264
 C        -0.713896        -1.137376         0.361828
 C         0.099771         0.084009         0.648193
 O         1.164297         0.146265         1.308394
 C        -1.223643         0.464149        -1.348299
 O        -2.160555         1.283572        -2.188264
 H         0.751801         2.594641        -0.012396
 H        -0.568652         2.998585        -1.043025
 H        -0.530080         3.189536         0.645502
 H        -2.372539         0.657386         1.512526
 H        -2.804560         1.492165         0.071527
 H        -2.817337        -1.103263        -0.729253
 H        -0.912785        -1.709123         1.312901
 H        -0.166473        -1.843690        -0.371053
 H        -0.391616         0.206255        -2.043794
 H        -2.229154         2.232893        -1.801511
