19
Iteration:  3173charge 0 multiplicity 1
 C        -0.109614         2.623657        -0.085039
 C        -0.733090         1.150056        -0.025533
 C        -2.252061         0.674697         0.275690
 C        -1.788766        -0.536617        -0.590990
 C        -0.755869        -1.174135         0.331655
 C        -0.078127         0.173455         0.900814
 O         0.607873         0.439516         1.862080
 C        -1.086486         0.362811        -1.521878
 O        -1.882609         1.181947        -2.358449
 H         0.922004         2.628325        -0.505862
 H        -0.649978         3.391490        -0.644111
 H        -0.008351         2.881925         1.022070
 H        -2.408461         0.531621         1.378940
 H        -2.987563         1.412171         0.039861
 H        -2.490836        -1.320404        -1.060343
 H        -1.274772        -1.806494         1.113559
 H        -0.000450        -1.889380        -0.105292
 H        -0.195962        -0.180712        -2.129374
 H        -1.354573         1.143821        -3.235018
