19
Iteration:  4143charge 0 multiplicity 1
 C        -0.558579         2.713200         0.171279
 C        -0.839389         1.239488         0.021401
 C        -2.345281         0.883452         0.249532
 C        -1.989776        -0.417479        -0.454125
 C        -1.066824        -1.121890         0.566768
 C        -0.084434         0.148107         0.774137
 O         1.051637         0.156839         1.280309
 C        -0.893914         0.430970        -1.291654
 O        -1.448840         0.914071        -2.469209
 H         0.504172         3.034842        -0.125559
 H        -1.301430         3.301378        -0.372675
 H        -0.600678         2.852517         1.241493
 H        -2.898172         0.841364         1.234595
 H        -3.094323         1.343428        -0.455605
 H        -2.630941        -1.167338        -1.083353
 H        -1.343254        -1.283240         1.646811
 H        -0.686847        -2.048474         0.133186
 H         0.133778        -0.058364        -1.541988
 H        -0.852208         1.542796        -2.777931
