19
Iteration:   596charge 0 multiplicity 1
 C        -0.078692         2.550674        -0.303116
 C        -0.688700         1.189128        -0.110945
 C        -1.859745         0.644489         0.908690
 C        -2.001093        -0.490090        -0.070650
 C        -0.680655        -1.242151         0.020836
 C         0.233731         0.018301         0.288378
 O         1.372327         0.100639         0.745656
 C        -1.672762         0.492435        -1.175822
 O        -2.559865         1.596856        -1.532117
 H         0.941783         2.484100         0.215370
 H         0.030102         2.868651        -1.418156
 H        -0.668275         3.323111         0.194050
 H        -1.696566         0.416780         1.897554
 H        -2.648509         1.356729         0.893032
 H        -2.975079        -1.002538        -0.029255
 H        -0.731001        -2.029190         0.845676
 H        -0.450271        -1.803397        -0.835238
 H        -1.342218         0.015885        -2.159058
 H        -2.961503         1.279670        -2.373725
