19
Iteration:  1739charge 0 multiplicity 1
 C        -0.057694         2.595413        -0.096385
 C        -0.671597         1.213030        -0.122909
 C        -2.016587         0.722326         0.587002
 C        -1.937223        -0.533180        -0.387618
 C        -0.666792        -1.212454         0.196774
 C         0.061443         0.115450         0.511692
 O         0.795740         0.262781         1.474858
 C        -1.262872         0.515053        -1.405381
 O        -2.263270         1.166586        -2.060375
 H         0.655143         2.669542        -0.996935
 H        -0.729509         3.476079        -0.115584
 H         0.645380         2.637128         0.712797
 H        -1.900849         0.693250         1.608127
 H        -2.861548         1.322716         0.362494
 H        -2.791268        -1.137433        -0.774436
 H        -0.837805        -1.773352         1.166564
 H         0.009604        -1.793475        -0.527528
 H        -0.542204        -0.105285        -1.948346
 H        -2.046712         2.163711        -2.179237
