19
Iteration:  1176charge 0 multiplicity 1
 C         0.029338         2.613476        -0.300109
 C        -0.652986         1.192959        -0.184319
 C        -1.977039         0.707145         0.759399
 C        -1.911900        -0.483979        -0.274603
 C        -0.653013        -1.153153         0.049758
 C         0.140918         0.102455         0.469410
 O         1.024263         0.143240         1.333133
 C        -1.458564         0.469701        -1.330365
 O        -2.505250         1.259790        -1.803613
 H        -0.458078         3.256329        -1.188392
 H        -0.195076         3.161518         0.667699
 H         1.101313         2.656169        -0.445079
 H        -1.724428         0.479067         1.858585
 H        -2.928066         1.252665         0.554761
 H        -2.800580        -1.059909        -0.371502
 H        -0.711922        -1.785224         0.987067
 H        -0.213769        -1.810194        -0.795646
 H        -0.863186         0.149099        -2.224974
 H        -2.203576         1.878608        -2.440478
