19
Iteration:  2141charge 0 multiplicity 1
 C        -0.453955         2.621002         0.187963
 C        -0.825617         1.179611         0.070531
 C        -2.378805         0.766257         0.399530
 C        -2.053689        -0.519740        -0.344471
 C        -0.916475        -1.114529         0.599020
 C         0.046247         0.122826         0.721529
 O         1.243490         0.196306         0.968241
 C        -1.121544         0.371731        -1.332783
 O        -1.658519         1.262118        -2.351455
 H        -0.131075         2.880841        -0.799635
 H        -1.382342         3.299896         0.233947
 H         0.253302         3.064352         0.941497
 H        -2.822869         0.467763         1.370866
 H        -2.874232         1.655572         0.013393
 H        -2.844020        -1.237560        -0.669268
 H        -1.431298        -1.382023         1.521627
 H        -0.458236        -1.990781         0.107798
 H        -0.187761        -0.042349        -1.732272
 H        -1.494495         0.838666        -3.150184
