19
Iteration:  3696charge 0 multiplicity 1
 C        -0.198688         2.504409        -0.055987
 C        -0.799771         1.194965        -0.090454
 C        -2.256241         0.767671         0.196908
 C        -1.895391        -0.556237        -0.580271
 C        -0.859098        -1.140577         0.442523
 C        -0.098136         0.168920         0.849443
 O         0.788632         0.393546         1.700768
 C        -0.985318         0.386279        -1.386535
 O        -1.817053         1.146691        -2.282203
 H         0.891967         2.363063        -0.112001
 H        -0.522681         3.149275        -0.850213
 H        -0.351141         3.114368         0.906357
 H        -2.860747         0.472549         1.135511
 H        -3.030852         1.292939        -0.465647
 H        -2.595817        -1.161080        -1.148252
 H        -1.225763        -1.688960         1.327749
 H        -0.044831        -1.753910         0.007167
 H        -0.078156         0.028705        -1.818510
 H        -1.101463         1.650975        -2.840701
