19
Iteration:  1802
 C        -0.203881         2.604450        -0.033871
 C        -0.756114         1.249458        -0.107595
 C        -2.196794         0.797493         0.479651
 C        -1.911016        -0.435115        -0.338016
 C        -0.717326        -1.187998         0.343992
 C         0.087639         0.101140         0.601998
 O         0.996089         0.136682         1.356775
 C        -1.125432         0.450434        -1.396069
 O        -2.160942         1.215201        -2.102115
 H        -0.896008         3.203010        -0.564979
 H        -0.095881         2.919865         1.051672
 H         0.879879         2.536412        -0.412508
 H        -2.215880         0.753840         1.574617
 H        -3.025715         1.342737         0.026687
 H        -2.768850        -1.057605        -0.679044
 H        -0.891337        -1.714416         1.256813
 H        -0.258970        -1.844890        -0.334239
 H        -0.493457         0.018264        -2.130266
 H        -2.201612         1.268726        -3.124508
