19
Iteration:  4533charge 0 multiplicity 1
 C        -0.273004         2.628411        -0.066374
 C        -0.694294         1.190358        -0.065818
 C        -2.231519         0.815372         0.239601
 C        -1.927176        -0.494468        -0.413250
 C        -0.742312        -1.117991         0.390061
 C        -0.046722         0.166031         0.789311
 O         0.668289         0.208868         1.747083
 C        -1.090457         0.424959        -1.415973
 O        -1.744961         1.060868        -2.410800
 H         0.654702         2.732555         0.383680
 H        -0.101828         2.785349        -1.102746
 H        -0.915645         3.331353         0.484822
 H        -2.319829         0.848422         1.355475
 H        -2.952363         1.415994        -0.436321
 H        -2.742096        -1.146300        -0.742259
 H        -1.137715        -1.608292         1.314352
 H        -0.284962        -1.840919        -0.306741
 H        -0.154643         0.043019        -1.751608
 H        -1.237764         1.777720        -2.727395
