19
Iteration:   202
 C        -0.046501         2.502182         0.274745
 C        -0.757967         1.193759         0.091430
 C        -1.949053         0.753256         1.023493
 C        -2.049841        -0.400056         0.029519
 C        -0.644345        -1.223121         0.330354
 C         0.239033        -0.016880         0.112182
 O         1.375756         0.092719        -0.294194
 C        -1.527590         0.596607        -1.072536
 O        -2.640082         1.336418        -1.688140
 H         0.536639         2.521635         1.213521
 H         0.620657         2.691637        -0.602924
 H        -0.604877         3.452280         0.315902
 H        -1.641986         0.464385         2.102454
 H        -2.716260         1.557863         1.163696
 H        -2.906896        -1.121159        -0.131449
 H        -0.547490        -1.692439         1.298436
 H        -0.408081        -1.997801        -0.427334
 H        -1.038923         0.067826        -1.894537
 H        -2.714288         2.330149        -1.503439
