19
Iteration:   515
 C        -0.179479         2.536017         0.239554
 C        -0.742416         1.210007         0.114403
 C        -2.048038         0.860445         0.927513
 C        -2.028427        -0.444609         0.014901
 C        -0.694676        -1.165225         0.433455
 C         0.209974        -0.018096         0.248766
 O         1.381341         0.028282        -0.095611
 C        -1.506188         0.549318        -1.165761
 O        -2.369716         1.359647        -1.811307
 H        -0.984556         3.283823         0.420914
 H         0.593847         2.546550         0.970264
 H         0.287885         2.706127        -0.927155
 H        -1.971099         0.813519         2.050343
 H        -2.841436         1.475614         0.487391
 H        -3.019413        -0.933036        -0.129034
 H        -0.763773        -1.379903         1.474077
 H        -0.448193        -2.134031        -0.232133
 H        -0.642262         0.271307        -1.807680
 H        -2.998183         0.823490        -2.251505
