19
Iteration:   324charge 0 multiplicity 1
 C         0.022650         2.510914        -0.241293
 C        -0.664907         1.165725        -0.081221
 C        -1.741608         0.723049         0.965793
 C        -1.998265        -0.492201        -0.055987
 C        -0.642323        -1.282246        -0.055192
 C         0.284915         0.032227         0.124410
 O         1.415244         0.048798         0.572262
 C        -1.690364         0.631590        -1.147111
 O        -2.915134         1.438636        -1.370433
 H        -0.594050         3.318026        -0.638310
 H         0.571160         2.983153         0.686022
 H         0.762296         2.401987        -0.994901
 H        -1.427281         0.504125         2.069874
 H        -2.502442         1.547048         0.861514
 H        -3.012240        -0.892305        -0.161481
 H        -0.581004        -2.113787         0.710558
 H        -0.444399        -1.713597        -1.007577
 H        -1.326167         0.288324        -2.105355
 H        -2.778833         2.416547        -1.432577
