19
Iteration:  2568charge 0 multiplicity 1
 C        -0.167712         2.663823        -0.020733
 C        -0.778591         1.287330        -0.099181
 C        -2.195867         0.776300         0.470618
 C        -1.822282        -0.561975        -0.454334
 C        -0.769332        -1.165668         0.395965
 C        -0.084226         0.124590         0.699508
 O         0.678527         0.246276         1.610050
 C        -1.042327         0.417991        -1.417704
 O        -1.823211         1.120044        -2.470561
 H         0.197284         2.981366        -1.016506
 H        -0.870612         3.402666         0.326336
 H         0.669905         2.705927         0.689840
 H        -2.122969         0.686773         1.653617
 H        -3.162226         1.255238         0.053045
 H        -2.637523        -1.164606        -0.753419
 H        -1.056112        -1.726209         1.292536
 H         0.068766        -1.735075        -0.098075
 H        -0.186197        -0.105036        -1.804229
 H        -2.742503         1.342208        -2.137290
