19
Iteration:  3533charge 0 multiplicity 1
 C        -0.357295         2.666906         0.082068
 C        -0.908339         1.205159         0.098860
 C        -2.317567         0.812758         0.238016
 C        -1.909815        -0.533425        -0.543432
 C        -0.866891        -1.071444         0.452471
 C        -0.097782         0.176303         0.793964
 O         0.858981         0.277504         1.516470
 C        -0.925210         0.296535        -1.420378
 O        -1.637539         1.015399        -2.442178
 H         0.640470         2.827082        -0.337727
 H        -1.105970         3.319446        -0.310245
 H        -0.335677         2.933482         1.210930
 H        -2.492622         1.007921         1.265229
 H        -2.909249         1.517623        -0.396024
 H        -2.665711        -1.280696        -1.056690
 H        -1.298574        -1.429763         1.417237
 H        -0.151547        -1.827333         0.119315
 H         0.085810        -0.213910        -1.788774
 H        -1.193849         1.830848        -2.400980
