19
Iteration:   915
 C        -0.084979         2.695213        -0.474627
 C        -0.636500         1.179867        -0.168098
 C        -1.839379         0.719767         0.730076
 C        -1.984525        -0.520356        -0.161645
 C        -0.669734        -1.317006         0.048391
 C         0.198383         0.061132         0.435517
 O         1.151484         0.109623         1.183957
 C        -1.537556         0.466927        -1.285106
 O        -2.474842         1.489629        -1.585192
 H        -0.767550         3.124897        -1.225641
 H         0.088049         3.334958         0.372915
 H         0.813956         2.579841        -0.876528
 H        -1.684301         0.553084         1.786778
 H        -2.720555         1.377743         0.626247
 H        -2.953169        -1.054119        -0.370802
 H        -0.757102        -2.056525         0.926962
 H        -0.324575        -1.868592        -0.851290
 H        -1.059452         0.015456        -2.147922
 H        -3.288197         0.999703        -1.967275
