19
Iteration:  2588
 C        -0.177272         2.651992        -0.090596
 C        -0.721659         1.247060        -0.004954
 C        -2.214383         0.703950         0.391342
 C        -1.932260        -0.472483        -0.489018
 C        -0.740997        -1.185964         0.293367
 C         0.008155         0.116703         0.795256
 O         0.754854         0.277564         1.743507
 C        -1.130867         0.469236        -1.388957
 O        -1.835727         1.092150        -2.477616
 H        -0.093969         2.937245        -1.153654
 H        -0.757007         3.448114         0.359955
 H         0.894893         2.784502         0.243705
 H        -2.568569         0.399508         1.503774
 H        -2.896487         1.509166        -0.051100
 H        -2.624964        -1.176448        -0.887794
 H        -1.130886        -1.636360         1.198884
 H        -0.161421        -2.022082        -0.116830
 H        -0.115292         0.196197        -1.766517
 H        -2.818097         1.291310        -2.324307
