19
Iteration:  4498charge 0 multiplicity 1
 C        -0.270414         2.635863        -0.012439
 C        -0.763646         1.206899        -0.039916
 C        -2.235538         0.745698         0.193210
 C        -1.863593        -0.550778        -0.569777
 C        -1.022511        -1.235015         0.500323
 C        -0.117157         0.159476         0.881943
 O         0.840766         0.332201         1.538763
 C        -0.976596         0.415482        -1.382131
 O        -1.689820         1.139675        -2.305666
 H         0.693604         2.710996         0.348439
 H        -0.217830         3.011679        -1.009360
 H        -0.965421         3.404809         0.345488
 H        -2.516692         0.672767         1.351877
 H        -3.128479         1.429739        -0.176800
 H        -2.714205        -1.192971        -0.887001
 H        -1.575120        -1.525936         1.440430
 H        -0.190249        -1.974328         0.244662
 H        -0.104947         0.013827        -1.848385
 H        -1.178703         1.380526        -3.054507
