19
Iteration:  3823
 C        -0.223158         2.592535         0.084527
 C        -0.851201         1.218247        -0.037617
 C        -2.497484         0.693997         0.109520
 C        -1.926533        -0.571999        -0.516237
 C        -1.017733        -1.065992         0.545548
 C        -0.116368         0.194754         0.890555
 O         0.985872         0.315500         1.475365
 C        -0.933327         0.417920        -1.319871
 O        -1.629680         1.113331        -2.403586
 H         0.436579         2.889198        -0.830204
 H        -1.008282         3.475936         0.330503
 H         0.445648         2.551344         0.955380
 H        -2.601673         0.620537         1.080712
 H        -3.235990         1.230201        -0.451768
 H        -2.668666        -1.217267        -0.850149
 H        -1.608457        -1.600377         1.321123
 H        -0.241448        -1.801562         0.284198
 H         0.101046         0.055228        -1.580141
 H        -1.005104         1.197621        -3.151165
