19
Iteration:  1233
 C        -0.164617         2.650401        -0.234922
 C        -0.642085         1.180271        -0.132095
 C        -2.021400         0.660612         0.650209
 C        -2.014122        -0.528616        -0.314289
 C        -0.655012        -1.181328         0.228457
 C         0.116914         0.073463         0.506402
 O         1.110094         0.146839         1.240708
 C        -1.419656         0.451852        -1.331955
 O        -2.267678         1.379383        -1.930073
 H        -0.956285         3.318335         0.119716
 H         0.764839         2.861445         0.328957
 H         0.051071         2.821761        -1.343556
 H        -1.935527         0.347361         1.732416
 H        -2.760566         1.466747         0.585285
 H        -2.931437        -1.148675        -0.496994
 H        -0.540628        -1.745810         1.134899
 H        -0.196582        -1.669191        -0.627701
 H        -0.715246         0.135676        -2.092759
 H        -3.136266         1.526496        -1.440108
