19
Iteration:  1310
 C        -0.296688         2.672218         0.345124
 C        -0.840725         1.243561         0.148841
 C        -2.230809         0.868290         0.550456
 C        -2.013647        -0.479972        -0.238325
 C        -0.830826        -1.171230         0.493570
 C         0.083359         0.086967         0.502499
 O         1.320737         0.145549         0.492543
 C        -1.228742         0.393972        -1.254653
 O        -2.037795         1.163908        -2.162198
 H        -0.126149         2.809079         1.374657
 H         0.671627         2.754503        -0.167556
 H        -1.081322         3.473881         0.097807
 H        -2.313029         0.766761         1.661027
 H        -3.029569         1.590901         0.220078
 H        -2.907953        -1.106388        -0.570032
 H        -1.124182        -1.500910         1.488043
 H        -0.143424        -1.935854         0.056786
 H        -0.336348        -0.048696        -1.706558
 H        -2.308545         0.891598        -3.003355
