19
Iteration:  1715
 C        -0.128435         2.603945        -0.151235
 C        -0.682115         1.185164        -0.126054
 C        -2.156219         0.756525         0.519631
 C        -1.907941        -0.495587        -0.378889
 C        -0.702316        -1.220951         0.276885
 C         0.089041         0.068801         0.646320
 O         1.036956         0.202194         1.450764
 C        -1.287688         0.473543        -1.435195
 O        -2.238732         1.256684        -2.113381
 H         0.865621         2.754926        -0.513787
 H        -0.813998         3.308749        -0.704205
 H        -0.139414         2.995733         0.943013
 H        -2.148264         0.622346         1.558819
 H        -3.036249         1.314472         0.238640
 H        -2.686029        -1.263933        -0.627131
 H        -1.061982        -1.849384         1.072928
 H        -0.167561        -1.823988        -0.473130
 H        -0.553693        -0.036634        -2.046662
 H        -2.203210         2.188825        -1.730461
