19
Iteration:  4876
 C        -0.074110         2.605080        -0.023970
 C        -0.734849         1.161775        -0.031412
 C        -2.302797         0.795241         0.148515
 C        -1.807376        -0.570958        -0.502195
 C        -0.738365        -1.194599         0.434656
 C        -0.087005         0.132121         0.829559
 O         0.689031         0.361799         1.693566
 C        -1.044012         0.381947        -1.443231
 O        -1.963745         1.149779        -2.315861
 H        -0.315653         3.041670         0.917342
 H         0.978650         2.457676        -0.018041
 H        -0.427576         3.204188        -0.774132
 H        -2.613047         0.809815         1.154171
 H        -3.010278         1.298654        -0.554911
 H        -2.657810        -1.192438        -1.039971
 H        -1.204182        -1.578590         1.326857
 H         0.055133        -1.804869         0.003871
 H        -0.081040         0.128008        -1.952818
 H        -1.358201         1.735381        -2.704809
