19
Iteration:  1375charge 0 multiplicity 1
 C        -0.397319         2.666328         0.095794
 C        -0.869789         1.253082         0.116564
 C        -2.231266         0.776350         0.600485
 C        -1.974314        -0.447936        -0.279183
 C        -0.806527        -1.154790         0.411832
 C         0.117565         0.042153         0.593214
 O         1.316132         0.060738         0.654784
 C        -1.225637         0.432667        -1.209673
 O        -1.956295         1.225420        -2.136013
 H         0.513475         2.830960         0.567223
 H        -0.378862         2.998766        -0.944958
 H        -1.172966         3.351796         0.588959
 H        -2.335549         0.564932         1.665532
 H        -3.160805         1.299001         0.365956
 H        -2.841891        -1.065197        -0.610744
 H        -1.021070        -1.639738         1.416191
 H        -0.327016        -1.951483        -0.309975
 H        -0.459792         0.206683        -1.897470
 H        -2.386955         2.016560        -1.777358
