19
Iteration:  2539charge 0 multiplicity 1
 C        -0.267638         2.559376         0.079792
 C        -0.705602         1.155240         0.017140
 C        -2.257289         0.797004         0.351868
 C        -1.914399        -0.492752        -0.524790
 C        -0.858538        -1.142192         0.344733
 C         0.007506         0.131291         0.741696
 O         0.871731         0.390806         1.576833
 C        -1.077741         0.336828        -1.399225
 O        -1.811946         1.112430        -2.414602
 H         0.480786         2.824029        -0.701799
 H        -1.111884         3.293209        -0.056124
 H         0.302563         2.782871         0.967575
 H        -2.645845         0.875862         1.278438
 H        -2.846214         1.431439        -0.246625
 H        -2.761283        -1.164379        -0.903122
 H        -1.131762        -1.828434         1.176432
 H        -0.087567        -1.749532        -0.174881
 H        -0.303227        -0.290291        -1.959847
 H        -2.440878         1.649745        -1.976997
