19
Iteration:  2823charge 0 multiplicity 1
 C        -0.325096         2.618254        -0.030876
 C        -0.886963         1.238876        -0.098679
 C        -2.351605         0.729893         0.447064
 C        -1.870769        -0.506861        -0.478232
 C        -0.838556        -1.088624         0.471990
 C        -0.059739         0.134858         0.746845
 O         0.810496         0.237475         1.590745
 C        -0.983212         0.411386        -1.323361
 O        -1.576616         1.143593        -2.548182
 H         0.190872         2.722387         0.905497
 H         0.442026         2.600531        -0.803486
 H        -1.040562         3.389519        -0.137986
 H        -2.374501         0.475644         1.555472
 H        -3.196319         1.326751         0.012700
 H        -2.429659        -1.218189        -1.065403
 H        -1.173514        -1.520565         1.397074
 H        -0.382522        -1.910466        -0.057046
 H        -0.091226         0.085533        -1.742870
 H        -2.366842         1.512923        -2.233437
