19
Iteration:  4449
 C        -0.374309         2.664777         0.150906
 C        -0.883184         1.243783         0.101818
 C        -2.409854         0.755306         0.205294
 C        -1.965268        -0.476948        -0.467779
 C        -0.966153        -1.099095         0.578544
 C        -0.165128         0.200037         0.861551
 O         1.024039         0.253012         1.318439
 C        -0.969438         0.302810        -1.334034
 O        -1.529596         1.064990        -2.491942
 H         0.809887         2.602484         0.219950
 H        -0.649695         3.433795        -0.648524
 H        -0.644883         3.161951         1.111422
 H        -2.949769         0.875524         1.099135
 H        -2.873678         1.347505        -0.523293
 H        -2.669752        -1.152303        -0.964395
 H        -1.410959        -1.605870         1.448670
 H        -0.399531        -1.856812         0.072495
 H         0.071755        -0.118370        -1.569535
 H        -0.867932         1.147022        -3.293955
