19
Iteration:  3711
 C        -0.143263         2.593148        -0.116095
 C        -0.768472         1.183035         0.003795
 C        -2.297768         0.709266         0.228521
 C        -1.877771        -0.552136        -0.553677
 C        -0.821451        -1.165329         0.328181
 C        -0.137064         0.257140         0.833987
 O         0.707002         0.371756         1.735005
 C        -1.010211         0.342597        -1.394068
 O        -1.767640         1.096843        -2.282942
 H         0.902084         2.493007        -0.492502
 H        -0.653481         3.299052        -0.814441
 H        -0.081526         3.033434         0.994186
 H        -2.451938         0.809522         1.235985
 H        -2.855666         1.453339        -0.244495
 H        -2.720272        -1.254032        -0.944460
 H        -1.321184        -1.708099         1.138785
 H        -0.118402        -1.798020        -0.275453
 H        -0.140312        -0.149274        -1.948325
 H        -1.404029         1.922197        -2.503526
