19
Iteration:  3999charge 0 multiplicity 1
 C        -0.211629         2.643676        -0.110148
 C        -0.606277         1.224468        -0.030010
 C        -2.172126         0.801405         0.356584
 C        -1.888387        -0.499714        -0.579366
 C        -0.773767        -1.152040         0.368722
 C        -0.141933         0.132900         0.843603
 O         0.577918         0.271374         1.777362
 C        -0.967601         0.394043        -1.426860
 O        -1.866346         1.058087        -2.400868
 H         0.926891         2.736302         0.088332
 H        -0.379533         2.814253        -1.259841
 H        -0.764141         3.261639         0.614493
 H        -2.443839         0.579327         1.401398
 H        -2.996330         1.608412         0.098814
 H        -2.712580        -1.092883        -0.946732
 H        -1.203626        -1.830307         1.103727
 H         0.044699        -1.656373        -0.142654
 H        -0.052236         0.123231        -1.922834
 H        -1.154888         1.656760        -2.784285
