19
Iteration:  4683charge 0 multiplicity 1
 C        -0.524849         2.733050         0.042150
 C        -0.924728         1.260844         0.103250
 C        -2.393810         0.815999         0.399952
 C        -1.971124        -0.405649        -0.405380
 C        -0.991619        -1.060789         0.523404
 C        -0.100918         0.198179         0.786977
 O         0.961487         0.135591         1.343668
 C        -0.912154         0.268717        -1.377238
 O        -1.369259         1.011747        -2.545440
 H         0.281825         2.786158        -0.714650
 H        -1.444550         3.368437        -0.129854
 H        -0.270266         3.038906         1.137851
 H        -2.709863         0.713190         1.377600
 H        -3.161340         1.547219        -0.027382
 H        -2.637133        -1.071225        -0.963184
 H        -1.421764        -1.540000         1.432362
 H        -0.258845        -1.868269         0.157064
 H         0.088530        -0.273547        -1.569481
 H        -0.580126         1.225322        -3.023356
