19
Iteration:  3429
 C        -0.296653         2.540404        -0.120319
 C        -0.781345         1.181655        -0.112102
 C        -2.249510         0.707768         0.280622
 C        -1.783996        -0.553110        -0.559620
 C        -0.800438        -1.168301         0.381287
 C        -0.083762         0.145289         0.835501
 O         0.661801         0.374126         1.820628
 C        -0.951007         0.426611        -1.432786
 O        -1.722844         1.208422        -2.398137
 H         0.855378         2.517279        -0.178522
 H        -0.568649         3.188306        -1.056810
 H        -0.395628         3.130983         0.805769
 H        -2.550773         0.415651         1.311520
 H        -3.237357         1.070209        -0.096061
 H        -2.489475        -1.167575        -0.938652
 H        -1.149819        -1.679873         1.285062
 H        -0.091641        -1.867012        -0.062940
 H        -0.019516         0.248683        -1.998188
 H        -2.493117         1.477276        -1.764166
