19
Iteration:  3645
 C        -0.438206         2.642988         0.108418
 C        -0.811048         1.242229        -0.039215
 C        -2.401565         0.829101         0.250313
 C        -1.935324        -0.459036        -0.486193
 C        -0.940528        -1.084554         0.446417
 C        -0.042136         0.175140         0.815724
 O         0.948514         0.220494         1.461828
 C        -0.930249         0.354672        -1.373222
 O        -1.567035         1.068654        -2.377257
 H         0.594987         2.760159         0.472126
 H        -0.515456         3.222856        -0.794212
 H        -1.100968         3.145758         0.921757
 H        -2.624070         0.665501         1.293242
 H        -3.095470         1.573006        -0.089246
 H        -2.635812        -1.266489        -0.988109
 H        -1.424979        -1.439190         1.375607
 H        -0.228071        -1.861691         0.085256
 H        -0.040256        -0.274226        -1.775286
 H        -1.513014         0.458035        -3.188358
