19
Iteration:  4770
 C        -0.240043         2.653460         0.102340
 C        -0.857738         1.201120         0.035064
 C        -2.317442         0.761077         0.126132
 C        -1.883648        -0.492506        -0.536985
 C        -0.975059        -1.161668         0.531960
 C        -0.129504         0.103434         0.843656
 O         0.903440         0.338078         1.499867
 C        -0.930691         0.424533        -1.361140
 O        -1.706822         1.022701        -2.409809
 H         0.794018         2.643813         0.576557
 H        -0.097651         3.104719        -0.954818
 H        -0.873118         3.541211         0.599717
 H        -2.657899         0.581199         1.193914
 H        -3.109910         1.445861        -0.319833
 H        -2.560818        -1.137723        -1.108271
 H        -1.478125        -1.401054         1.475200
 H        -0.393944        -2.092961         0.298022
 H         0.025420         0.098001        -1.777039
 H        -1.262030         1.578986        -2.981624
