19
Iteration:  1260charge 0 multiplicity 1
 C        -0.208489         2.576557         0.002048
 C        -0.850156         1.224461        -0.022438
 C        -2.123222         0.780827         0.703141
 C        -1.910230        -0.447894        -0.322869
 C        -0.734993        -1.231165         0.288811
 C         0.154335         0.046286         0.561394
 O         1.273338         0.179022         0.986799
 C        -1.335957         0.481272        -1.322340
 O        -2.286339         1.221836        -2.101840
 H        -0.628884         3.385316         0.634034
 H         0.850307         2.385312         0.210307
 H        -0.291066         2.937146        -1.020319
 H        -2.153266         0.678971         1.772192
 H        -2.969112         1.439775         0.468378
 H        -2.745325        -1.023013        -0.710478
 H        -0.895559        -1.659732         1.309058
 H        -0.340223        -2.041856        -0.340432
 H        -0.460328         0.155442        -1.946716
 H        -2.530911         2.172821        -1.866902
