19
Iteration:  3189charge 0 multiplicity 1
 C        -0.145020         2.582464         0.000909
 C        -0.729728         1.227417        -0.109810
 C        -2.249291         0.764565         0.257017
 C        -1.878698        -0.595519        -0.541368
 C        -0.726595        -1.218260         0.355020
 C        -0.056880         0.167021         0.861482
 O         0.624532         0.387867         1.814867
 C        -0.949462         0.416194        -1.396151
 O        -1.910004         1.169171        -2.385677
 H         0.922376         2.503056        -0.254052
 H        -0.636494         3.126709        -0.848004
 H        -0.283351         3.134236         0.956651
 H        -2.629693         0.618696         1.261881
 H        -2.890031         1.167718        -0.555422
 H        -2.681206        -1.130913        -0.967208
 H        -1.051431        -1.737389         1.231358
 H        -0.042842        -1.822832        -0.202944
 H        -0.080234         0.103604        -1.918675
 H        -1.719966         1.018491        -3.344124
