19
Iteration:  1094
 C        -0.331030         2.667156         0.054703
 C        -0.788596         1.192522         0.119322
 C        -2.131857         0.788092         0.798233
 C        -1.990138        -0.396955        -0.140384
 C        -0.804998        -1.158150         0.435269
 C         0.116432         0.047378         0.461156
 O         1.327778         0.035413         0.463295
 C        -1.310794         0.485349        -1.212300
 O        -2.081345         1.286816        -2.119600
 H         0.485221         2.844345        -0.566741
 H        -1.116038         3.336824        -0.268670
 H        -0.001442         2.973416         1.097912
 H        -2.152424         0.643567         1.853062
 H        -2.919305         1.444691         0.484007
 H        -2.953381        -0.989004        -0.213926
 H        -1.031033        -1.493386         1.471540
 H        -0.402617        -2.117050        -0.182545
 H        -0.518868        -0.035007        -1.811390
 H        -2.904825         0.745669        -2.248754
