19
Iteration:  3575
 C        -0.433962         2.638703         0.131846
 C        -0.950677         1.231934         0.047774
 C        -2.391298         0.778362         0.193027
 C        -1.886059        -0.574459        -0.526087
 C        -0.982601        -1.126128         0.622453
 C        -0.160131         0.144799         0.857661
 O         1.012373         0.278916         1.271948
 C        -0.926008         0.374284        -1.301982
 O        -1.403823         1.099917        -2.462123
 H         0.568881         2.612723        -0.397625
 H        -1.034506         3.191153        -0.706710
 H        -0.324016         3.332410         1.056284
 H        -2.849310         0.603245         1.167186
 H        -3.166861         1.370507        -0.338701
 H        -2.564526        -1.253419        -0.993112
 H        -1.548090        -1.272789         1.550058
 H        -0.545859        -2.076651         0.433913
 H         0.144447         0.157104        -1.595278
 H        -2.106939         1.672825        -2.106112
