19
Iteration:  2577charge 0 multiplicity 1
 C        -0.134844         2.724120        -0.073499
 C        -0.769244         1.202407        -0.007484
 C        -2.166038         0.710284         0.497429
 C        -1.822727        -0.541876        -0.478118
 C        -0.720152        -1.185315         0.397353
 C        -0.089719         0.161652         0.718564
 O         0.685057         0.242022         1.652192
 C        -1.136812         0.492008        -1.438082
 O        -1.797609         1.090415        -2.482840
 H         0.010623         2.936357        -1.135012
 H        -0.858234         3.398139         0.355411
 H         0.785914         2.683547         0.599700
 H        -2.599477         0.732738         1.660036
 H        -2.880660         1.452051        -0.067825
 H        -2.616762        -1.059031        -0.959400
 H        -1.124165        -1.572374         1.311456
 H        -0.191589        -1.886605        -0.255375
 H        -0.365706         0.009733        -2.102632
 H        -2.760017         1.237643        -2.175305
