19
Iteration:   543charge 0 multiplicity 1
 C        -0.181844         2.773414         0.063091
 C        -0.656517         1.259489         0.014489
 C        -2.017462         0.735681         0.943068
 C        -2.053996        -0.451822        -0.094636
 C        -0.750145        -1.146221         0.390102
 C         0.223295        -0.019807         0.250607
 O         1.438251        -0.111567         0.162416
 C        -1.504524         0.506406        -1.233714
 O        -2.452569         1.386876        -1.704699
 H        -0.645808         3.180779         0.982714
 H         0.952434         2.903462         0.137639
 H        -0.559970         3.241398        -0.741168
 H        -1.758670         0.416918         2.008333
 H        -2.808520         1.490465         1.063496
 H        -2.932032        -1.055310        -0.296483
 H        -0.793524        -1.696661         1.370256
 H        -0.513314        -1.895483        -0.302777
 H        -0.758786         0.238751        -2.027296
 H        -3.129812         0.896234        -2.209585
