19
Iteration:  1380
 C        -0.406360         2.664840         0.072996
 C        -0.898135         1.178346         0.064252
 C        -2.247337         0.815051         0.654471
 C        -2.002198        -0.464146        -0.294213
 C        -0.787571        -1.187432         0.384726
 C         0.134888         0.066454         0.576584
 O         1.336194         0.077484         0.711196
 C        -1.211826         0.489279        -1.224728
 O        -1.987211         1.219028        -2.116956
 H         0.663250         2.737692         0.510395
 H        -0.296814         2.974618        -0.985976
 H        -1.076159         3.259074         0.675671
 H        -2.342712         0.612377         1.738517
 H        -3.135479         1.355134         0.262744
 H        -2.838242        -1.030555        -0.725010
 H        -0.974538        -1.622740         1.340883
 H        -0.420647        -1.877072        -0.300632
 H        -0.294300         0.054284        -1.780752
 H        -2.311090         2.050211        -1.739068
