19
Iteration:  1610
 C        -0.350185         2.704334         0.365192
 C        -0.873957         1.231568         0.104579
 C        -2.310923         0.795653         0.471294
 C        -1.987022        -0.485616        -0.298495
 C        -0.918311        -1.084631         0.533815
 C         0.069499         0.130678         0.550436
 O         1.268133         0.138837         0.628661
 C        -1.125909         0.426270        -1.289835
 O        -1.908796         1.103291        -2.208278
 H        -0.344380         2.935224         1.536186
 H         0.736257         2.703018         0.076976
 H        -0.928826         3.381104        -0.215421
 H        -2.483309         0.612696         1.628839
 H        -3.202384         1.223759        -0.017785
 H        -2.731427        -1.202768        -0.615570
 H        -1.213541        -1.433387         1.550286
 H        -0.501457        -1.983788         0.004594
 H        -0.225623        -0.114524        -1.669217
 H        -1.363745         1.397649        -2.940169
