19
Iteration:  1478charge 0 multiplicity 1
 C        -0.042111         2.617738        -0.187739
 C        -0.718410         1.265006        -0.216901
 C        -2.053215         0.743328         0.614024
 C        -1.881937        -0.496347        -0.373748
 C        -0.575588        -1.163304         0.148898
 C         0.108847         0.033765         0.607525
 O         0.946146         0.088855         1.462598
 C        -1.319605         0.517465        -1.390443
 O        -2.422360         1.301169        -1.909175
 H        -0.030048         3.070883        -1.243271
 H        -0.767243         3.277169         0.381606
 H         0.832189         2.489179         0.383946
 H        -1.733092         0.558365         1.688671
 H        -2.891770         1.459033         0.422446
 H        -2.601274        -1.227660        -0.759757
 H        -0.678323        -1.882965         0.929316
 H         0.055830        -1.534093        -0.612319
 H        -0.788061         0.208877        -2.273049
 H        -2.485935         1.143008        -2.843252
