19
Iteration:  2528
 C        -0.253476         2.633955         0.107700
 C        -0.773972         1.181492         0.037033
 C        -2.253985         0.807659         0.285407
 C        -1.939262        -0.530886        -0.411179
 C        -0.785866        -1.197136         0.416403
 C        -0.046184         0.082626         0.798941
 O         0.923460         0.345240         1.481655
 C        -1.113097         0.367640        -1.394243
 O        -1.785997         1.146143        -2.471900
 H         0.552559         2.604158        -0.661543
 H        -1.079009         3.230552        -0.377051
 H        -0.001785         3.051330         1.076056
 H        -2.696162         0.704754         1.179742
 H        -2.870754         1.376861        -0.322660
 H        -2.580134        -1.314302        -0.943343
 H        -1.385330        -1.631977         1.252608
 H        -0.127994        -1.898796        -0.124634
 H        -0.174900         0.103534        -1.977130
 H        -2.316841         1.779922        -2.005654
