19
Iteration:  2301charge 0 multiplicity 1
 C        -0.141077         2.674785        -0.240592
 C        -0.714446         1.211325        -0.052408
 C        -2.205849         0.746994         0.398315
 C        -1.903578        -0.579100        -0.476033
 C        -0.664030        -1.167785         0.238399
 C        -0.055343         0.206429         0.803801
 O         0.801837         0.221221         1.670381
 C        -1.141806         0.369100        -1.419555
 O        -2.029263         1.197163        -2.128371
 H        -0.899585         3.416486        -0.041944
 H         0.673216         2.664155         0.515451
 H         0.273775         2.674296        -1.227200
 H        -2.460767         0.608702         1.572489
 H        -2.978294         1.401058         0.005019
 H        -2.806467        -1.097521        -0.734068
 H        -0.829045        -1.930088         1.029699
 H         0.045886        -1.569458        -0.520904
 H        -0.401132        -0.084154        -2.171504
 H        -1.553978         1.694312        -2.771055
