19
Iteration:  1084charge 0 multiplicity 1
 C        -0.370223         2.733205         0.075886
 C        -0.788010         1.286373         0.172410
 C        -2.135248         0.824881         0.779360
 C        -2.051133        -0.444497        -0.087765
 C        -0.862657        -1.240673         0.523961
 C         0.171356        -0.021870         0.485314
 O         1.385363         0.034110         0.364489
 C        -1.277109         0.466349        -1.212422
 O        -2.069082         1.305446        -2.126673
 H         0.558493         2.774995        -0.459912
 H        -1.130028         3.237154        -0.525790
 H        -0.357064         3.257720         1.093513
 H        -2.217658         0.586406         1.820937
 H        -2.999007         1.414206         0.488741
 H        -2.950255        -0.881900        -0.551310
 H        -1.010719        -1.762760         1.511626
 H        -0.469984        -2.024547        -0.350893
 H        -0.401170        -0.035093        -1.739768
 H        -2.787581         0.770545        -2.622440
