19
Iteration:  4786
 C        -0.310861         2.608750         0.006257
 C        -0.755729         1.243129        -0.050283
 C        -2.301001         0.832004         0.282808
 C        -1.912268        -0.514648        -0.510169
 C        -0.898906        -1.147082         0.428325
 C        -0.118337         0.208273         0.837336
 O         0.818931         0.269114         1.593309
 C        -0.949408         0.367330        -1.383869
 O        -1.706780         1.035193        -2.383122
 H         0.533931         2.702323         0.662864
 H        -0.022702         2.971656        -0.945045
 H        -1.046714         3.187189         0.464699
 H        -2.602411         0.818171         1.307733
 H        -2.862999         1.420786        -0.381433
 H        -2.727542        -1.105013        -0.969439
 H        -1.368165        -1.748552         1.264453
 H        -0.151938        -1.723052        -0.137193
 H        -0.022679        -0.143020        -1.777275
 H        -1.046092         1.587379        -2.837868
