19
Iteration:   393
 C        -0.128181         2.544222        -0.246840
 C        -0.689567         1.212468        -0.185968
 C        -1.702134         0.776278         0.948308
 C        -1.983567        -0.427894        -0.066240
 C        -0.655759        -1.314893         0.034120
 C         0.314021        -0.031667         0.157885
 O         1.420433         0.006707         0.674863
 C        -1.708234         0.574495        -1.224616
 O        -2.834013         1.463468        -1.424159
 H         0.800036         2.700093         0.364206
 H         0.191601         2.746461        -1.309776
 H        -0.901098         3.335960         0.069912
 H        -1.273778         0.518613         1.929238
 H        -2.563214         1.429528         1.036747
 H        -2.917943        -0.931282        -0.121066
 H        -0.408589        -1.981298         0.876487
 H        -0.546137        -1.842839        -0.956524
 H        -1.237010         0.208609        -2.193312
 H        -2.374979         2.305917        -1.378759
