19
Iteration:  4976charge 0 multiplicity 1
 C        -0.480965         2.733114         0.089968
 C        -0.923443         1.265777         0.132899
 C        -2.328738         0.818834         0.201417
 C        -1.915890        -0.499747        -0.449969
 C        -1.066167        -1.101805         0.587969
 C        -0.039694         0.148271         0.773899
 O         1.067734         0.146504         1.159385
 C        -0.901842         0.318047        -1.308350
 O        -1.553112         1.100024        -2.299051
 H        -1.346378         3.352024         0.198568
 H         0.305553         2.852498         0.817660
 H        -0.117477         2.873574        -0.885578
 H        -2.828191         0.611806         1.093901
 H        -3.018692         1.392683        -0.437542
 H        -2.806092        -1.257844        -0.862169
 H        -1.612500        -1.301247         1.498719
 H        -0.520901        -2.017717         0.249304
 H         0.072174        -0.264704        -1.587989
 H        -0.945052         1.634255        -2.854147
