19
Iteration:  1490
 C        -0.137485         2.548567        -0.166551
 C        -0.665653         1.161016        -0.124328
 C        -2.015205         0.712731         0.594765
 C        -1.876971        -0.483182        -0.345632
 C        -0.577786        -1.168798         0.124003
 C         0.127504         0.134024         0.561575
 O         0.950520         0.105110         1.465445
 C        -1.381139         0.526658        -1.419058
 O        -2.367532         1.362007        -1.952892
 H        -0.125397         2.995040        -1.272783
 H        -0.547790         3.329173         0.556342
 H         0.926936         2.617174        -0.076493
 H        -2.011632         0.545551         1.752998
 H        -3.006126         1.212440         0.478862
 H        -2.823204        -0.988448        -0.431292
 H        -0.741631        -1.792532         0.964478
 H        -0.055019        -1.696673        -0.602145
 H        -0.595352         0.098011        -2.064412
 H        -2.515407         1.050678        -2.858427
