19
Iteration:  1133
 C        -0.029317         2.592385        -0.003752
 C        -0.679229         1.235157        -0.043159
 C        -2.091513         0.756224         0.673072
 C        -2.001460        -0.471099        -0.181351
 C        -0.736509        -1.259328         0.291074
 C         0.149594         0.017564         0.516273
 O         1.299672         0.223743         0.912600
 C        -1.442168         0.506448        -1.393608
 O        -2.401799         1.263381        -2.050579
 H         0.189937         2.947438        -1.094251
 H        -0.745249         3.314479         0.479897
 H         0.821550         2.535054         0.653117
 H        -2.195704         0.688888         1.812827
 H        -2.902260         1.437484         0.311279
 H        -2.813317        -1.171055        -0.304880
 H        -1.078238        -1.725665         1.219493
 H        -0.336187        -1.957044        -0.332946
 H        -0.779058         0.005718        -2.087360
 H        -3.033499         1.617030        -1.436043
