19
Iteration:  1161
 C        -0.035235         2.512951        -0.187755
 C        -0.728647         1.238993        -0.138936
 C        -1.982381         0.767642         0.688630
 C        -1.965784        -0.424166        -0.276326
 C        -0.619602        -1.155775         0.188504
 C         0.184479         0.069002         0.445741
 O         1.097163         0.157078         1.235490
 C        -1.386059         0.512438        -1.389740
 O        -2.555033         1.206368        -1.882395
 H        -0.166662         3.014788        -1.133473
 H        -0.272231         3.216849         0.588963
 H         0.995572         2.162307         0.005128
 H        -1.782273         0.517639         1.706125
 H        -2.778056         1.516797         0.681166
 H        -2.816992        -1.088464        -0.503475
 H        -0.702730        -1.827907         1.083096
 H        -0.148971        -1.766855        -0.734783
 H        -0.710938         0.019154        -2.160243
 H        -2.385410         2.178462        -1.809521
