19
Iteration:  2989
 C        -0.511039         2.634484         0.094959
 C        -0.796939         1.208136         0.054755
 C        -2.309310         0.766172         0.327246
 C        -1.865354        -0.491484        -0.555440
 C        -1.006896        -1.006239         0.580185
 C        -0.159218         0.176466         0.808555
 O         0.951555         0.204143         1.352159
 C        -0.891225         0.383375        -1.368732
 O        -1.464090         1.024231        -2.505361
 H         0.501944         2.909452         0.418614
 H        -0.560095         3.060867        -0.909496
 H        -1.243479         3.111259         0.829133
 H        -2.580114         0.716323         1.457350
 H        -3.297527         1.266484        -0.096297
 H        -2.570122        -1.251171        -1.059316
 H        -1.532270        -1.352923         1.490557
 H        -0.285653        -1.761882         0.309983
 H        -0.098973        -0.103533        -1.822625
 H        -2.111486         1.706614        -2.143897
