19
Iteration:  3103charge 0 multiplicity 1
 C        -0.361000         2.622655        -0.018528
 C        -0.784424         1.220810        -0.059847
 C        -2.321035         0.855024         0.305470
 C        -1.834431        -0.524560        -0.563655
 C        -0.812127        -1.105908         0.450707
 C        -0.158680         0.194424         0.897272
 O         0.822000         0.234279         1.663568
 C        -1.017324         0.375781        -1.407323
 O        -1.617098         1.022269        -2.493255
 H         0.249979         2.930566        -0.848391
 H        -1.183245         3.353716        -0.045358
 H         0.227036         2.736997         0.803799
 H        -2.665677         0.618142         1.334705
 H        -3.087555         1.581842        -0.115931
 H        -2.423559        -1.320440        -0.925684
 H        -1.339988        -1.607246         1.268201
 H        -0.080957        -1.846866         0.024849
 H        -0.101612        -0.206541        -1.847171
 H        -1.877464         2.003549        -2.289417
