19
Iteration:   595charge 0 multiplicity 1
 C        -0.079586         2.549172        -0.298417
 C        -0.687918         1.182804        -0.112029
 C        -1.870254         0.646335         0.911512
 C        -2.000040        -0.483932        -0.061138
 C        -0.683777        -1.245355         0.021587
 C         0.236246         0.016264         0.287815
 O         1.380907         0.097831         0.738527
 C        -1.662650         0.497554        -1.183803
 O        -2.562525         1.598354        -1.536581
 H         0.922217         2.515812         0.242343
 H         0.035759         2.859646        -1.402208
 H        -0.739237         3.328071         0.195959
 H        -1.714820         0.449069         1.899308
 H        -2.662242         1.361130         0.902056
 H        -2.996707        -0.980690        -0.031251
 H        -0.717290        -2.026667         0.853042
 H        -0.428129        -1.836664        -0.845214
 H        -1.353356        -0.008405        -2.142545
 H        -2.940986         1.268651        -2.354423
