19
Iteration:  3282
 C        -0.476836         2.758789         0.046529
 C        -0.830996         1.249854         0.050782
 C        -2.493740         0.717217         0.208012
 C        -1.904636        -0.558566        -0.463298
 C        -1.003909        -1.100813         0.497199
 C        -0.123502         0.191985         0.851818
 O         1.011124         0.224527         1.259422
 C        -0.944224         0.317148        -1.250177
 O        -1.339190         1.140498        -2.337900
 H         0.588307         2.988601         0.054371
 H        -0.923592         3.353433        -0.697496
 H        -0.832873         3.075532         1.046812
 H        -2.990669         0.536344         1.177657
 H        -3.145519         1.194727        -0.591596
 H        -2.548451        -1.268125        -1.153310
 H        -1.543248        -1.529606         1.410202
 H        -0.170946        -1.808484         0.134016
 H        -0.064083        -0.107124        -1.589204
 H        -2.240472         0.832628        -2.495680
