19
Iteration:  3408charge 0 multiplicity 1
 C        -0.258488         2.701746        -0.058496
 C        -0.750612         1.220551         0.012373
 C        -2.287592         0.641663         0.279116
 C        -1.852335        -0.570677        -0.559553
 C        -0.735016        -1.136801         0.419089
 C        -0.146379         0.166491         0.768540
 O         0.670209         0.295662         1.707213
 C        -1.028317         0.445624        -1.383393
 O        -1.656637         1.099262        -2.448706
 H         0.886663         2.819443        -0.132734
 H        -0.789770         3.332097        -0.918863
 H        -0.480168         3.142006         0.938244
 H        -2.498735         0.563169         1.358993
 H        -3.103340         1.217370        -0.106321
 H        -2.499841        -1.219267        -0.974791
 H        -1.135492        -1.593751         1.306822
 H         0.011287        -1.826643         0.122539
 H        -0.288809        -0.219714        -1.970714
 H        -2.091856         1.853847        -2.157089
