19
Iteration:   609
 C        -0.003170         2.526485        -0.337871
 C        -0.719615         1.132890        -0.111232
 C        -1.771367         0.666670         0.919385
 C        -2.042635        -0.546418        -0.135558
 C        -0.652639        -1.196998         0.028257
 C         0.191560         0.039429         0.243692
 O         1.256600         0.125306         0.841775
 C        -1.693493         0.560571        -1.213060
 O        -2.581591         1.552799        -1.481130
 H         1.119931         2.327399        -0.357203
 H        -0.235220         2.790785        -1.439925
 H        -0.166394         3.326020         0.286788
 H        -1.303181         0.386704         1.892358
 H        -2.634192         1.315279         1.029574
 H        -2.806653        -1.298965        -0.218963
 H        -0.533206        -1.927569         0.850645
 H        -0.255659        -1.581270        -0.871385
 H        -1.022376         0.194331        -2.075623
 H        -3.156663         1.448433        -2.249744
