19
Iteration:  3611
 C        -0.512455         2.709034         0.106082
 C        -0.898263         1.261533         0.029177
 C        -2.435510         0.878616         0.224704
 C        -1.985989        -0.548501        -0.430039
 C        -0.941952        -1.166827         0.516746
 C        -0.117649         0.167206         0.825763
 O         1.024603         0.214593         1.282745
 C        -0.904772         0.416780        -1.278054
 O        -1.351317         1.076418        -2.419431
 H         0.576619         2.589077         0.104344
 H        -0.782050         3.213989        -0.782946
 H        -0.835098         3.328878         1.083176
 H        -2.672735         0.583280         1.215636
 H        -3.278842         1.419793        -0.257996
 H        -2.713087        -1.387852        -0.914352
 H        -1.487406        -1.561368         1.403326
 H        -0.269277        -1.958113         0.107495
 H        -0.017405        -0.282573        -1.595192
 H        -2.190342         0.802879        -2.781442
