19
Iteration:  2643
 C        -0.305770         2.644902        -0.007978
 C        -0.838551         1.208440        -0.093529
 C        -2.330603         0.716057         0.324045
 C        -1.909932        -0.529579        -0.418440
 C        -0.880144        -1.226395         0.492386
 C         0.024176         0.106535         0.720097
 O         0.878215         0.335635         1.552812
 C        -1.031578         0.399783        -1.432733
 O        -1.652143         1.185116        -2.394573
 H        -1.011137         3.315390        -0.563262
 H        -0.139222         3.036557         1.001718
 H         0.767032         2.635003        -0.424583
 H        -2.638533         0.637435         1.472462
 H        -3.063742         1.301102        -0.329702
 H        -2.531200        -1.221615        -0.941836
 H        -1.324505        -1.421564         1.466233
 H        -0.426947        -2.089018        -0.024307
 H        -0.034570         0.001850        -1.837699
 H        -2.414285         1.649871        -2.026511
