19
Iteration:  4319charge 0 multiplicity 1
 C        -0.170772         2.526846        -0.070439
 C        -0.703990         1.167435        -0.115412
 C        -2.302667         0.791026         0.291164
 C        -1.887538        -0.557013        -0.473406
 C        -0.777849        -1.184935         0.460979
 C        -0.089287         0.135996         0.803199
 O         0.673863         0.347658         1.780866
 C        -1.000503         0.458739        -1.455064
 O        -1.801036         1.189251        -2.402452
 H         0.905503         2.487569        -0.253788
 H        -0.688322         3.083170        -0.829500
 H        -0.390872         2.919920         0.840255
 H        -2.629857         0.622389         1.458663
 H        -3.047358         1.342399        -0.304837
 H        -2.598083        -1.056480        -1.157704
 H        -1.140711        -1.607175         1.402103
 H        -0.139361        -1.914172        -0.052051
 H        -0.229540        -0.075499        -1.979734
 H        -1.300340         1.567756        -3.123843
