19
Iteration:  1329charge 0 multiplicity 1
 C        -0.421023         2.626988         0.295488
 C        -0.839452         1.160074         0.093581
 C        -2.264452         0.792160         0.580302
 C        -1.982733        -0.405519        -0.192115
 C        -0.847862        -1.085075         0.575164
 C         0.108685         0.080205         0.480790
 O         1.330108         0.085335         0.426376
 C        -1.187889         0.541516        -1.198053
 O        -1.893408         1.208480        -2.200838
 H         0.054486         2.626843         1.347869
 H         0.251379         2.964577        -0.505922
 H        -1.297167         3.236878         0.406649
 H        -2.544022         0.729637         1.679717
 H        -3.150394         1.362678         0.298175
 H        -2.697781        -1.128954        -0.515233
 H        -1.231622        -1.294722         1.647339
 H        -0.533524        -2.170440        -0.012749
 H        -0.533880        -0.090755        -1.949975
 H        -2.543697         0.557009        -2.325732
