19
Iteration:  3722
 C        -0.133527         2.616482        -0.128788
 C        -0.774544         1.231087        -0.109705
 C        -2.307478         0.797936         0.309069
 C        -1.882277        -0.500950        -0.503964
 C        -0.760356        -1.163193         0.376367
 C        -0.115904         0.064819         0.857229
 O         0.647695         0.361058         1.737676
 C        -0.991263         0.369447        -1.411474
 O        -1.767810         1.085373        -2.352378
 H         0.847189         2.648758        -0.652471
 H        -0.870070         3.308011        -0.612977
 H         0.032522         3.150549         0.918314
 H        -2.554682         0.590660         1.302109
 H        -3.147590         1.174972        -0.183319
 H        -2.603236        -1.232688        -1.036837
 H        -1.087235        -1.810386         1.204148
 H        -0.154874        -1.842390        -0.268193
 H        -0.061495        -0.131800        -1.824648
 H        -1.381364         2.026483        -2.332806
