19
Iteration:   831
 C        -0.126171         2.522057         0.099684
 C        -0.720870         1.204679         0.039337
 C        -1.989572         0.889165         0.816743
 C        -2.043610        -0.346928        -0.067626
 C        -0.783544        -1.101846         0.317721
 C         0.177000         0.066735         0.306509
 O         1.388897         0.028347         0.446450
 C        -1.462981         0.512628        -1.221536
 O        -2.460440         1.114262        -1.940116
 H         0.950440         2.483648        -0.008568
 H        -0.617430         3.184793        -0.628389
 H        -0.246491         2.895738         1.278357
 H        -1.850478         0.932969         1.904043
 H        -2.816386         1.496483         0.480037
 H        -2.932033        -0.989393        -0.267920
 H        -0.848090        -1.522596         1.301762
 H        -0.420444        -1.869612        -0.407732
 H        -0.633815         0.113179        -1.879122
 H        -2.522995         2.037054        -2.056487
