19
Iteration:   685
 C        -0.050307         2.604449        -0.194050
 C        -0.655846         1.190978        -0.120482
 C        -1.818945         0.836854         0.874838
 C        -2.024532        -0.446122        -0.100334
 C        -0.699584        -1.245393         0.123285
 C         0.264341        -0.002616         0.221608
 O         1.326704         0.020965         0.820422
 C        -1.556253         0.536815        -1.236971
 O        -2.663503         1.416171        -1.706278
 H        -0.636654         3.342092        -0.847817
 H        -0.097066         2.989437         0.883050
 H         0.981004         2.529438        -0.467917
 H        -1.508025         0.784531         1.846187
 H        -2.716925         1.429816         0.843820
 H        -2.963167        -0.985106        -0.041637
 H        -0.648718        -1.842628         1.057237
 H        -0.571011        -1.922183        -0.694885
 H        -0.996775         0.213955        -2.132046
 H        -3.439056         0.783281        -1.763428
