19
Iteration:    96
 C        -0.128309         2.533879        -0.280287
 C        -0.678425         1.137180        -0.166461
 C        -1.672372         0.518948         1.066117
 C        -2.003501        -0.535383        -0.054487
 C        -0.619432        -1.268963        -0.189657
 C         0.281148        -0.031881         0.103658
 O         1.438308         0.074970         0.460850
 C        -1.753534         0.688092        -1.085407
 O        -2.811892         1.656023        -1.241898
 H        -0.346512         2.953234        -1.272750
 H        -0.377630         3.315634         0.573064
 H         0.929565         2.272836        -0.249544
 H        -1.193448         0.211704         1.987977
 H        -2.383998         1.307149         1.222560
 H        -2.922471        -1.094652        -0.098744
 H        -0.448009        -2.080298         0.675260
 H        -0.314789        -1.648111        -1.163796
 H        -1.355865         0.411868        -2.094436
 H        -3.202556         2.169526        -0.482296
