19
Iteration:  3073charge 0 multiplicity 1
 C        -0.356430         2.707363         0.122180
 C        -0.779878         1.235364        -0.035048
 C        -2.380896         0.751499         0.271909
 C        -1.926313        -0.582187        -0.426068
 C        -1.004209        -1.207538         0.551086
 C        -0.117818         0.196993         0.770225
 O         0.872091         0.330467         1.407322
 C        -0.938975         0.471080        -1.350564
 O        -1.454320         1.016948        -2.516922
 H         0.398169         2.983569        -0.681439
 H        -1.257531         3.404270        -0.074077
 H         0.153410         2.737481         1.095631
 H        -2.800367         0.417628         1.202509
 H        -2.912723         1.363986        -0.328323
 H        -2.614408        -1.319063        -0.764022
 H        -1.422937        -1.381366         1.577164
 H        -0.537959        -2.146173         0.149004
 H         0.058959        -0.103377        -1.530388
 H        -2.158702         1.626725        -2.413632
