19
Iteration:  2867
 C        -0.260744         2.655035        -0.039826
 C        -0.738418         1.186550        -0.155367
 C        -2.288971         0.797033         0.231584
 C        -1.926719        -0.466350        -0.511571
 C        -0.770933        -1.125224         0.327557
 C        -0.042558         0.130770         0.842813
 O         0.715673         0.317814         1.776841
 C        -0.976834         0.320888        -1.507178
 O        -1.721387         1.069385        -2.308211
 H         0.438890         2.599784         0.789494
 H         0.348237         3.073890        -0.841548
 H        -1.037244         3.260332         0.364311
 H        -2.601657         0.597326         1.306924
 H        -3.056280         1.416479        -0.320827
 H        -2.748155        -1.080890        -0.879613
 H        -1.096244        -1.687185         1.181700
 H         0.017849        -1.643784        -0.197588
 H        -0.265781        -0.192875        -2.075120
 H        -2.321787         1.489365        -1.745321
