19
Iteration:   790
 C        -0.202758         2.659229         0.179929
 C        -0.731369         1.245600         0.128148
 C        -2.072325         0.822824         0.808226
 C        -1.990355        -0.498533        -0.067123
 C        -0.805906        -1.105675         0.548611
 C         0.149030         0.078572         0.350525
 O         1.310820        -0.048829         0.052861
 C        -1.373703         0.518463        -1.170334
 O        -2.323221         1.213384        -1.951392
 H         0.591322         2.773978         0.885186
 H         0.115084         3.004384        -0.798588
 H        -0.975079         3.299432         0.531982
 H        -2.046322         0.665398         1.979975
 H        -2.833561         1.525715         0.445880
 H        -2.874602        -1.118454        -0.223404
 H        -0.972755        -1.196101         1.606799
 H        -0.570666        -2.079791         0.163235
 H        -0.653220        -0.018621        -1.833907
 H        -1.731579         1.867867        -2.419526
