19
Iteration:  4066charge 0 multiplicity 1
 C        -0.182957         2.618064        -0.032036
 C        -0.825831         1.131804        -0.018221
 C        -2.310691         0.781717         0.262803
 C        -1.889414        -0.475183        -0.554650
 C        -0.890468        -1.193732         0.434031
 C        -0.142072         0.185321         0.826058
 O         0.808453         0.361578         1.607432
 C        -0.940820         0.358891        -1.375196
 O        -1.752073         1.095133        -2.364821
 H         0.849870         2.579390         0.548956
 H         0.029310         3.102291        -1.047610
 H        -0.776506         3.240832         0.782795
 H        -2.585258         0.503603         1.294777
 H        -3.054349         1.369497        -0.365999
 H        -2.690936        -1.129810        -1.079059
 H        -1.600166        -1.669091         1.188513
 H        -0.116832        -1.934594         0.245747
 H         0.064403         0.007323        -1.697567
 H        -1.317302         1.753745        -2.928020
