19
Iteration:  2223
 C        -0.280393         2.595714         0.142273
 C        -0.843107         1.186998        -0.008288
 C        -2.258591         0.814037         0.379579
 C        -1.964738        -0.465501        -0.332878
 C        -0.814229        -1.147392         0.455554
 C         0.047126         0.063659         0.641551
 O         1.060878         0.275347         1.270565
 C        -1.097951         0.441269        -1.313940
 O        -1.942557         1.086393        -2.385118
 H        -0.303868         3.152743        -0.823615
 H        -0.976348         3.073942         0.812170
 H         0.721285         2.472578         0.452330
 H        -2.518358         0.765653         1.535702
 H        -2.909559         1.405210        -0.321630
 H        -2.807842        -0.975160        -0.839957
 H        -1.045184        -1.659845         1.390260
 H        -0.294643        -1.930235        -0.130826
 H        -0.180757         0.071601        -1.909554
 H        -1.512615         1.978264        -2.570380
