19
Iteration:  4363
 C        -0.254849         2.602798         0.020597
 C        -0.863503         1.205494        -0.033628
 C        -2.424468         0.765288         0.123264
 C        -1.888958        -0.465644        -0.517901
 C        -0.926757        -1.099277         0.527863
 C        -0.095166         0.141356         0.813702
 O         0.858296         0.279135         1.506709
 C        -0.894443         0.383166        -1.328586
 O        -1.662867         1.068673        -2.315949
 H         0.599499         2.643438        -0.632019
 H        -1.030587         3.247060        -0.335763
 H        -0.070168         2.845764         0.987171
 H        -2.650884         0.789995         1.280796
 H        -3.125573         1.316117        -0.438850
 H        -2.548465        -1.237251        -0.901357
 H        -1.354915        -1.492083         1.440563
 H        -0.260297        -1.777727        -0.006491
 H         0.064552         0.053707        -1.612147
 H        -1.051321         1.657836        -2.761335
