19
Iteration:  3622charge 0 multiplicity 1
 C        -0.481569         2.708362         0.095726
 C        -0.906846         1.261552         0.126638
 C        -2.329197         0.816631         0.215358
 C        -1.949628        -0.474850        -0.414392
 C        -0.929511        -1.182504         0.507454
 C        -0.111571         0.092149         0.792325
 O         0.969373         0.231945         1.318506
 C        -0.996667         0.393131        -1.301363
 O        -1.397663         1.081644        -2.465786
 H         0.569807         2.937925         0.310780
 H        -0.746404         3.211270        -0.809139
 H        -1.083366         3.256542         0.994917
 H        -2.669287         1.032560         1.180305
 H        -2.942193         1.540556        -0.373409
 H        -2.789637        -1.155077        -0.899607
 H        -1.295022        -1.662463         1.435876
 H        -0.196859        -1.848245         0.007517
 H        -0.008036        -0.174785        -1.580949
 H        -1.987809         0.483090        -2.842168
