19
Iteration:  1857charge 0 multiplicity 1
 C        -0.411818         2.614317         0.055368
 C        -0.897534         1.214502         0.089699
 C        -2.360160         0.774555         0.502259
 C        -2.020277        -0.542892        -0.311731
 C        -0.787679        -1.082668         0.494094
 C         0.040043         0.122444         0.652508
 O         1.197377         0.122370         0.932264
 C        -1.160245         0.385131        -1.252717
 O        -1.757660         1.318050        -2.250285
 H        -1.122180         3.250815         0.480403
 H         0.492433         2.520432         0.670990
 H        -0.249521         2.831639        -1.009427
 H        -2.653892         0.749868         1.572806
 H        -3.036774         1.433085        -0.042752
 H        -2.691114        -1.322560        -0.727104
 H        -1.000903        -1.366194         1.488255
 H        -0.274190        -1.841419        -0.005509
 H        -0.325630        -0.150528        -1.654880
 H        -1.470696         1.041149        -3.113791
