19
Iteration:  3199charge 0 multiplicity 1
 C        -0.208357         2.580249        -0.018387
 C        -0.755674         1.189902        -0.070139
 C        -2.234991         0.775478         0.156559
 C        -1.797365        -0.536284        -0.454748
 C        -0.739483        -1.175844         0.411833
 C        -0.096086         0.129609         0.768169
 O         0.618800         0.337163         1.750937
 C        -1.000685         0.499790        -1.421437
 O        -1.853707         1.127677        -2.316919
 H         0.906836         2.482579        -0.034625
 H        -0.470324         3.254970        -0.857296
 H        -0.439365         3.032032         0.995207
 H        -2.586803         0.785902         1.187533
 H        -2.986628         1.427126        -0.338408
 H        -2.506777        -1.213888        -0.885050
 H        -0.980419        -1.838776         1.210559
 H        -0.028551        -1.716768        -0.192676
 H        -0.088448         0.095238        -1.947227
 H        -1.559573         0.718212        -3.196845
