19
Iteration:   784charge 0 multiplicity 1
 C        -0.233470         2.608460         0.152140
 C        -0.757191         1.215769         0.117550
 C        -2.088082         0.864442         0.831991
 C        -1.984029        -0.428979        -0.071497
 C        -0.777378        -1.086211         0.540424
 C         0.133277         0.024014         0.353294
 O         1.302081        -0.028537         0.027211
 C        -1.333782         0.477019        -1.154782
 O        -2.304053         1.237966        -1.911182
 H         0.501092         2.778910         1.039470
 H         0.211221         2.867185        -0.852498
 H        -1.128495         3.272137         0.465897
 H        -2.139019         0.623269         1.816585
 H        -2.883861         1.580306         0.585082
 H        -2.825066        -1.071147        -0.363131
 H        -1.039970        -1.196740         1.690907
 H        -0.318659        -2.055396         0.187763
 H        -0.618019         0.000737        -1.819570
 H        -1.718042         1.760019        -2.538397
