19
Iteration:   913charge 0 multiplicity 1
 C        -0.085841         2.683609        -0.471360
 C        -0.649017         1.196803        -0.182274
 C        -1.844780         0.723622         0.732976
 C        -1.965629        -0.513721        -0.183184
 C        -0.676627        -1.330702         0.042243
 C         0.199268         0.050934         0.445691
 O         1.162459         0.111704         1.181398
 C        -1.549540         0.467586        -1.270357
 O        -2.474300         1.489459        -1.574848
 H        -0.768214         3.078542        -1.296667
 H        -0.000333         3.366812         0.400318
 H         0.875249         2.544773        -0.892947
 H        -1.693049         0.552649         1.858446
 H        -2.763427         1.397566         0.580059
 H        -2.916312        -1.050128        -0.331764
 H        -0.765952        -2.016664         0.907298
 H        -0.315739        -1.857263        -0.781901
 H        -1.023059        -0.010638        -2.135413
 H        -3.251847         1.058827        -2.029208
