19
Iteration:   840charge 0 multiplicity 1
 C        -0.095247         2.527242         0.059399
 C        -0.734523         1.206001        -0.015380
 C        -1.934794         0.867100         0.799636
 C        -2.074065        -0.419431        -0.070470
 C        -0.780329        -1.137817         0.307325
 C         0.176678         0.057779         0.278039
 O         1.356684         0.078423         0.559767
 C        -1.425379         0.553582        -1.228836
 O        -2.504159         1.134933        -1.898532
 H         0.911118         2.464622        -0.427279
 H        -0.716996         3.277916        -0.475646
 H         0.031073         2.959926         1.162358
 H        -1.919954         0.700890         1.811548
 H        -2.703359         1.583995         0.510137
 H        -3.138268        -0.736099        -0.181609
 H        -0.772239        -1.790385         1.255939
 H        -0.317460        -1.800596        -0.516617
 H        -0.819785         0.034686        -1.972812
 H        -2.264753         2.040972        -1.988965
