19
Iteration:  2940charge 0 multiplicity 1
 C        -0.306039         2.613795        -0.015346
 C        -0.858147         1.169894        -0.013503
 C        -2.318359         0.796751         0.262202
 C        -1.925348        -0.495641        -0.483904
 C        -0.705382        -1.178784         0.429777
 C        -0.155775         0.185977         0.827238
 O         0.772689         0.295121         1.546741
 C        -1.015608         0.401802        -1.317129
 O        -1.576186         1.092807        -2.423374
 H         0.633678         2.765177         0.595040
 H         0.089260         2.892619        -1.070098
 H        -1.037489         3.299998         0.407346
 H        -2.644337         0.756156         1.291383
 H        -2.923328         1.475461        -0.284866
 H        -2.697489        -1.140809        -0.805081
 H        -1.114647        -1.848677         1.200274
 H        -0.052183        -1.741708        -0.293941
 H        -0.012837         0.028558        -1.791302
 H        -2.442328         1.392598        -2.159694
