19
Iteration:  3942charge 0 multiplicity 1
 C        -0.252717         2.529447         0.106651
 C        -0.820890         1.212163        -0.014038
 C        -2.311065         0.786886         0.172059
 C        -1.847148        -0.510891        -0.530367
 C        -0.932924        -1.078430         0.492223
 C        -0.159645         0.183676         0.862004
 O         0.838890         0.353772         1.518280
 C        -0.938566         0.333819        -1.372161
 O        -1.724583         1.078482        -2.403427
 H         0.667489         2.537250        -0.494062
 H        -0.895820         3.427671        -0.183315
 H         0.062950         2.664465         1.107757
 H        -2.720988         0.684949         1.239209
 H        -2.927566         1.255686        -0.636010
 H        -2.647071        -1.084154        -0.903754
 H        -1.469146        -1.666211         1.188745
 H        -0.186493        -1.781183         0.136348
 H        -0.047729        -0.070582        -1.825435
 H        -0.991213         1.650245        -2.727414
