19
Iteration:  2165
 C        -0.452789         2.667782         0.085938
 C        -0.926872         1.239005         0.042675
 C        -2.341179         0.779321         0.496239
 C        -1.889570        -0.577220        -0.367879
 C        -0.905880        -1.168004         0.627499
 C        -0.039051         0.073268         0.676865
 O         1.154509         0.139733         0.918638
 C        -1.045989         0.437960        -1.265666
 O        -1.677791         1.248130        -2.324465
 H        -0.143628         3.099318        -0.842319
 H        -1.290728         3.267393         0.375966
 H         0.251541         2.916628         0.873525
 H        -2.547794         0.731028         1.641326
 H        -3.186295         1.416241         0.044075
 H        -2.733407        -1.006212        -0.952527
 H        -1.566888        -1.192046         1.456337
 H        -0.485657        -2.096565         0.447373
 H        -0.009943         0.165058        -1.620682
 H        -1.163366         1.076223        -3.159079
