19
Iteration:  3357charge 0 multiplicity 1
 C        -0.420844         2.687673         0.250362
 C        -0.885722         1.238271         0.032801
 C        -2.309262         0.748362         0.239407
 C        -1.909989        -0.512473        -0.477063
 C        -0.895908        -1.127901         0.452525
 C        -0.105924         0.217903         0.780307
 O         0.894396         0.315648         1.440875
 C        -0.964375         0.332195        -1.410528
 O        -1.485329         0.971436        -2.519364
 H         0.570834         2.949724        -0.085616
 H        -1.039616         3.337478        -0.368467
 H        -0.519498         3.018611         1.245207
 H        -2.783846         0.806247         1.226651
 H        -2.895406         1.447693        -0.393700
 H        -2.688641        -1.229160        -0.876779
 H        -1.460885        -1.520146         1.312144
 H        -0.385005        -2.034576         0.025689
 H        -0.062086        -0.174021        -1.775275
 H        -1.840674         1.802963        -2.143396
