19
Iteration:  1769charge 0 multiplicity 1
 C        -0.025043         2.534484        -0.040083
 C        -0.663138         1.193115        -0.008294
 C        -2.066543         0.751308         0.536954
 C        -1.937829        -0.466937        -0.383184
 C        -0.625280        -1.202991         0.165841
 C         0.064322         0.096995         0.665801
 O         0.919463         0.271818         1.544508
 C        -1.308955         0.482765        -1.468212
 O        -2.360852         1.210120        -2.173173
 H        -0.012578         2.867627        -1.041406
 H        -0.444510         3.431370         0.488146
 H         1.097338         2.580238         0.154190
 H        -2.148205         0.671314         1.614340
 H        -2.874160         1.383795         0.156103
 H        -2.806843        -1.126478        -0.642750
 H        -0.737003        -1.985261         0.875069
 H         0.001563        -1.588235        -0.607904
 H        -0.657301        -0.075042        -2.134922
 H        -2.100219         1.479626        -3.080261
