19
Iteration:  2453
 C        -0.509345         2.634278         0.143465
 C        -0.875486         1.223523         0.057619
 C        -2.421285         0.878200         0.273466
 C        -2.003992        -0.475230        -0.358896
 C        -0.866971        -1.149890         0.494518
 C        -0.050075         0.099354         0.777384
 O         1.133627         0.201132         1.093931
 C        -1.024100         0.396750        -1.249056
 O        -1.478149         1.126976        -2.369974
 H         0.314058         2.662849         0.869853
 H        -0.237617         3.117245        -0.835648
 H        -1.423168         3.096327         0.467536
 H        -2.669719         0.903536         1.365244
 H        -2.957567         1.542693        -0.370162
 H        -2.737236        -1.323408        -0.592275
 H        -1.235779        -1.481655         1.459636
 H        -0.285805        -1.840380        -0.074920
 H        -0.204886        -0.251680        -1.671087
 H        -2.489452         1.054577        -2.541392
