19
Iteration:  2083charge 0 multiplicity 1
 C        -0.239701         2.550534         0.048995
 C        -0.797779         1.191368         0.004089
 C        -2.264053         0.704201         0.460606
 C        -1.897714        -0.435477        -0.490896
 C        -0.777836        -1.092346         0.366073
 C         0.041189         0.110820         0.775974
 O         1.076205         0.253421         1.409178
 C        -1.185649         0.495945        -1.387023
 O        -1.982111         1.213966        -2.348372
 H         0.682984         2.459613        -0.661208
 H        -0.925288         3.395770        -0.368904
 H         0.199075         2.793566         1.074880
 H        -2.538597         0.368367         1.413177
 H        -2.923972         1.447341         0.072536
 H        -2.663580        -1.094116        -0.908873
 H        -1.303204        -1.668169         1.202270
 H        -0.137971        -1.944016        -0.101468
 H        -0.352284        -0.006328        -1.891228
 H        -2.556977         0.493658        -2.803411
