19
Iteration:  3321
 C        -0.482686         2.596057         0.178070
 C        -0.887733         1.224354         0.082938
 C        -2.447879         0.706840         0.206200
 C        -1.852750        -0.535105        -0.503815
 C        -0.976785        -1.075659         0.599760
 C        -0.140550         0.223207         0.826043
 O         0.973874         0.249286         1.223923
 C        -0.878556         0.498245        -1.301704
 O        -1.394766         1.044097        -2.471304
 H         0.599566         2.678400        -0.128234
 H        -1.229018         3.276646        -0.401004
 H        -0.536333         2.878170         1.235069
 H        -2.923544         0.787708         1.190420
 H        -2.925138         1.328571        -0.481933
 H        -2.437006        -1.286040        -0.854563
 H        -1.659805        -1.267853         1.385713
 H        -0.398782        -1.910682         0.386694
 H         0.121594        -0.095196        -1.550658
 H        -2.331163         1.272736        -2.551881
