19
Iteration:  4753charge 0 multiplicity 1
 C        -0.217127         2.606799         0.160826
 C        -0.857215         1.251384         0.005040
 C        -2.463960         0.754191         0.184372
 C        -1.775782        -0.561829        -0.595299
 C        -0.993650        -1.054927         0.642456
 C        -0.163779         0.210185         0.783049
 O         0.948812         0.277696         1.385543
 C        -0.915694         0.428863        -1.335942
 O        -1.678182         1.015802        -2.402851
 H         0.764586         2.406505         0.490098
 H        -0.311796         3.216011        -0.695186
 H        -0.817864         3.053780         0.863277
 H        -3.103950         0.750369         1.139990
 H        -2.992952         1.244581        -0.576952
 H        -2.376343        -1.284691        -1.146638
 H        -1.722352        -1.250164         1.497656
 H        -0.499609        -2.018934         0.520154
 H         0.014965        -0.004716        -1.783220
 H        -1.111064         1.586895        -2.836089
