19
Iteration:   206
 C        -0.057657         2.514581         0.262485
 C        -0.763360         1.208742         0.120179
 C        -1.937869         0.754330         1.011682
 C        -2.060613        -0.419792         0.045770
 C        -0.667154        -1.250601         0.324968
 C         0.242245        -0.013591         0.092340
 O         1.356797         0.107587        -0.297995
 C        -1.524078         0.601967        -1.037687
 O        -2.620378         1.341323        -1.709774
 H         0.663715         2.381913         1.102810
 H         0.552817         2.720103        -0.727087
 H        -0.580409         3.453727         0.425754
 H        -1.627357         0.501276         2.023638
 H        -2.697937         1.521356         1.087878
 H        -2.899837        -1.027576        -0.142133
 H        -0.600984        -1.780862         1.375051
 H        -0.252505        -2.001980        -0.353075
 H        -0.933542         0.111209        -1.908974
 H        -2.673337         2.201863        -1.309827
