19
Iteration:   218charge 0 multiplicity 1
 C        -0.028255         2.557585         0.194609
 C        -0.750548         1.219551         0.200308
 C        -1.885978         0.733962         1.066920
 C        -1.991487        -0.507320         0.030015
 C        -0.732482        -1.254576         0.300329
 C         0.171882         0.039413         0.116681
 O         1.343929         0.119474        -0.302465
 C        -1.596743         0.566911        -1.083704
 O        -2.509673         1.356141        -1.712919
 H         0.973054         2.434880         0.662882
 H         0.245201         2.887664        -0.876065
 H        -0.686243         3.229771         0.774300
 H        -1.795792         0.613640         2.123869
 H        -2.826207         1.215982         0.842300
 H        -2.985932        -0.875370        -0.039923
 H        -0.758958        -1.560831         1.417355
 H        -0.525589        -2.083900        -0.408386
 H        -0.819073         0.308497        -1.870794
 H        -2.885116         1.964727        -0.995209
