19
Iteration:  2238
 C        -0.228362         2.575442         0.119723
 C        -0.754607         1.240444        -0.127247
 C        -2.196304         0.767209         0.493843
 C        -1.913399        -0.521986        -0.439490
 C        -0.817450        -1.100921         0.409831
 C        -0.051154         0.201743         0.671814
 O         0.956370         0.254256         1.342593
 C        -1.143343         0.381841        -1.462152
 O        -1.942346         1.072128        -2.326773
 H        -0.337157         3.345596        -0.643617
 H        -0.597316         3.024995         1.111272
 H         0.885883         2.595878         0.405659
 H        -2.192830         0.629095         1.527003
 H        -3.027145         1.390811         0.315246
 H        -2.718815        -1.185550        -0.661696
 H        -1.252799        -1.456923         1.400517
 H        -0.147975        -1.896078        -0.094461
 H        -0.303273        -0.165726        -1.929313
 H        -1.759082         1.978625        -2.360181
