19
Iteration:  1615
 C        -0.344233         2.676384         0.357944
 C        -0.859503         1.217913         0.151389
 C        -2.328654         0.816218         0.465026
 C        -2.001824        -0.502296        -0.297095
 C        -0.920264        -1.134017         0.554180
 C         0.081094         0.120321         0.550555
 O         1.297143         0.162102         0.632468
 C        -1.178444         0.455964        -1.292622
 O        -1.893690         1.091198        -2.244876
 H        -0.209474         2.875106         1.370404
 H         0.677591         2.906290         0.027224
 H        -0.999985         3.506753        -0.167767
 H        -2.473060         0.556973         1.462413
 H        -3.195874         1.304768         0.019774
 H        -2.808974        -1.228639        -0.555254
 H        -1.257930        -1.396660         1.549230
 H        -0.485072        -1.925380        -0.030469
 H        -0.258088        -0.069247        -1.544641
 H        -1.292218         1.619237        -2.896009
