19
Iteration:  4762charge 0 multiplicity 1
 C        -0.244577         2.654648         0.124847
 C        -0.812471         1.256293         0.042007
 C        -2.436937         0.772197         0.159327
 C        -1.830936        -0.527289        -0.584593
 C        -0.980835        -1.133518         0.592335
 C        -0.090724         0.078437         0.827932
 O         0.893878         0.334874         1.437291
 C        -0.932065         0.441759        -1.372483
 O        -1.711297         1.009697        -2.404080
 H         0.772852         2.573440         0.538788
 H        -0.101986         2.997799        -0.899674
 H        -0.741842         3.376710         0.835694
 H        -2.751063         0.562914         1.085982
 H        -3.025233         1.348091        -0.461799
 H        -2.477293        -1.189855        -1.034405
 H        -1.779502        -1.232322         1.395463
 H        -0.345869        -2.050138         0.446039
 H         0.076818         0.069599        -1.748890
 H        -1.084630         1.530639        -2.829087
