19
Iteration:   327
 C         0.041831         2.517288        -0.236321
 C        -0.671792         1.178055        -0.093135
 C        -1.739172         0.732875         0.969528
 C        -1.985741        -0.503373        -0.063136
 C        -0.650271        -1.270103        -0.070380
 C         0.270048         0.023902         0.131016
 O         1.411037         0.063613         0.586402
 C        -1.690792         0.622360        -1.127008
 O        -2.916361         1.433375        -1.369413
 H        -0.601116         3.357212        -0.580148
 H         0.680372         2.901704         0.589930
 H         0.752581         2.316002        -1.085064
 H        -1.419042         0.520785         1.978767
 H        -2.555692         1.437434         0.850287
 H        -2.950695        -0.912442        -0.137079
 H        -0.608257        -2.114137         0.666706
 H        -0.501838        -1.786162        -1.046010
 H        -1.301568         0.310898        -2.150523
 H        -2.789252         2.414210        -1.353625
