19
Iteration:  2106
 C        -0.273881         2.728600         0.131030
 C        -0.853381         1.257798         0.009025
 C        -2.305008         0.796596         0.399518
 C        -1.939963        -0.550456        -0.345851
 C        -0.828758        -1.227236         0.413558
 C        -0.051813         0.118344         0.649296
 O         1.036772         0.223470         1.157615
 C        -1.047740         0.437346        -1.292660
 O        -1.820236         1.166166        -2.262662
 H         0.391689         2.860211        -0.770272
 H        -1.192035         3.512196         0.050444
 H         0.390794         2.829246         1.073364
 H        -2.471923         0.710476         1.447724
 H        -3.028479         1.390355        -0.091568
 H        -2.793505        -1.087769        -0.759451
 H        -1.080249        -1.881944         1.311297
 H        -0.273803        -2.024898        -0.245662
 H        -0.066105         0.125817        -1.676373
 H        -2.206769         0.617815        -2.896647
