19
Iteration:  3817charge 0 multiplicity 1
 C        -0.195737         2.599236         0.089397
 C        -0.891039         1.243353        -0.013791
 C        -2.447156         0.701843         0.108009
 C        -1.933785        -0.569235        -0.525042
 C        -1.008541        -1.083179         0.521547
 C        -0.103573         0.179582         0.902240
 O         0.972007         0.326639         1.519141
 C        -0.944074         0.380310        -1.368725
 O        -1.654020         1.111848        -2.406277
 H         0.342868         2.816906        -0.788463
 H        -0.824163         3.384447         0.252777
 H         0.510123         2.640280         0.944671
 H        -2.891501         0.573618         1.260097
 H        -3.143126         1.355197        -0.502708
 H        -2.638566        -1.274706        -1.111933
 H        -1.337416        -1.412345         1.539494
 H        -0.234274        -1.802078         0.201041
 H         0.060434         0.049965        -1.682719
 H        -1.123549         1.244621        -3.146027
