19
Iteration:  2212charge 0 multiplicity 1
 C        -0.337875         2.629633         0.131596
 C        -0.806407         1.208028         0.108189
 C        -2.358982         0.878655         0.323709
 C        -1.966810        -0.501818        -0.391854
 C        -0.820318        -1.236078         0.452686
 C         0.063298         0.047399         0.694281
 O         1.152389         0.264891         1.199668
 C        -1.145696         0.478576        -1.318243
 O        -1.891979         1.080007        -2.329000
 H        -0.221717         3.025902        -0.903257
 H        -0.845671         3.371927         0.711236
 H         0.610929         2.724906         0.588037
 H        -2.810445         1.012524         1.418698
 H        -3.030264         1.563550        -0.275410
 H        -2.710423        -1.254435        -0.781771
 H        -1.135836        -1.684603         1.393095
 H        -0.367378        -1.968542        -0.232466
 H        -0.230787        -0.105221        -1.749232
 H        -1.424329         1.750062        -2.774937
