19
Iteration:  2450charge 0 multiplicity 1
 C        -0.507912         2.633749         0.143351
 C        -0.872705         1.247558         0.069462
 C        -2.402900         0.874714         0.287434
 C        -2.028105        -0.487829        -0.362336
 C        -0.852520        -1.099196         0.493982
 C        -0.058279         0.093669         0.735994
 O         1.118974         0.187083         1.090175
 C        -1.019367         0.376712        -1.276404
 O        -1.480482         1.123764        -2.350792
 H         0.286800         2.667689         0.966243
 H        -0.192644         3.108043        -0.805966
 H        -1.417560         3.130419         0.507352
 H        -2.676282         0.922634         1.257998
 H        -3.106826         1.452507        -0.307141
 H        -2.796911        -1.277607        -0.669168
 H        -1.232040        -1.474543         1.474170
 H        -0.094548        -1.873311         0.089381
 H        -0.158401        -0.320072        -1.578829
 H        -2.381945         1.032349        -2.541871
