19
Iteration:  2764charge 0 multiplicity 1
 C        -0.416550         2.648120         0.168309
 C        -0.885413         1.264343        -0.001565
 C        -2.373402         0.767068         0.208246
 C        -1.942973        -0.515355        -0.491774
 C        -0.918830        -1.066686         0.573161
 C        -0.101521         0.130955         0.798966
 O         1.031442         0.206420         1.254841
 C        -0.955787         0.405089        -1.277286
 O        -1.535723         1.023829        -2.434620
 H        -0.941314         3.100111         1.064918
 H         0.678210         2.727080         0.361428
 H        -0.478583         3.313409        -0.743808
 H        -2.915070         0.766676         1.155027
 H        -3.059769         1.360468        -0.368763
 H        -2.627291        -1.125635        -1.051754
 H        -1.344995        -1.189705         1.589212
 H        -0.313959        -1.867334         0.145623
 H         0.108218         0.082668        -1.502494
 H        -2.364914         1.549346        -2.188802
