19
Iteration:  3109charge 0 multiplicity 1
 C        -0.362014         2.616574        -0.096013
 C        -0.723816         1.212576        -0.004549
 C        -2.310609         0.812055         0.260074
 C        -1.874495        -0.541268        -0.510794
 C        -0.816865        -1.119724         0.399599
 C        -0.145642         0.229800         0.916022
 O         0.784947         0.249961         1.689021
 C        -0.967725         0.384540        -1.417422
 O        -1.653604         1.029417        -2.461730
 H         0.381463         2.962318        -0.853551
 H        -1.169476         3.331125         0.098866
 H         0.231391         2.737352         0.952434
 H        -2.673159         0.740761         1.305609
 H        -2.997246         1.589675        -0.164234
 H        -2.574049        -1.326528        -0.988806
 H        -1.184490        -1.725086         1.249326
 H        -0.141515        -1.746018        -0.179973
 H        -0.201880        -0.121243        -1.985859
 H        -1.833328         1.959385        -2.297302
