19
Iteration:  2829charge 0 multiplicity 1
 C        -0.325882         2.602789        -0.037571
 C        -0.903208         1.200018        -0.045993
 C        -2.277324         0.764969         0.440178
 C        -1.869797        -0.478814        -0.447858
 C        -0.783252        -1.109916         0.445750
 C        -0.079472         0.113578         0.779033
 O         0.764939         0.236711         1.602780
 C        -0.964383         0.464981        -1.402115
 O        -1.610405         1.122649        -2.536025
 H         0.311696         2.734309         0.910036
 H         0.319427         2.740673        -0.976988
 H        -1.005754         3.508510        -0.236089
 H        -2.558004         0.479784         1.436022
 H        -3.149007         1.177293        -0.013872
 H        -2.581318        -1.151657        -1.014789
 H        -1.216199        -1.561013         1.400069
 H        -0.259574        -2.036430         0.060966
 H         0.079183         0.021322        -1.777320
 H        -2.445227         1.659665        -2.301863
