19
Iteration:  4397charge 0 multiplicity 1
 C        -0.417524         2.746797         0.157567
 C        -0.827265         1.257013         0.084496
 C        -2.371359         0.866841         0.220190
 C        -1.973200        -0.448398        -0.490488
 C        -0.955363        -1.060419         0.580130
 C        -0.123805         0.119174         0.821164
 O         0.974831         0.192295         1.375002
 C        -0.947262         0.299918        -1.358276
 O        -1.499668         0.938349        -2.542161
 H         0.372646         3.123791        -0.438330
 H        -1.301432         3.186303        -0.228253
 H        -0.172973         3.118685         1.086230
 H        -2.659910         0.639175         1.375749
 H        -3.128110         1.401918        -0.289679
 H        -2.683121        -1.140801        -0.903909
 H        -1.524446        -1.605849         1.312141
 H        -0.381914        -1.913944         0.162474
 H        -0.012806        -0.160690        -1.516795
 H        -1.187252         1.893232        -2.736981
