19
Iteration:   655charge 0 multiplicity 1
 C         0.064299         2.555467        -0.317939
 C        -0.587296         1.178020        -0.171807
 C        -1.808496         0.811856         0.816338
 C        -2.028766        -0.485772        -0.197206
 C        -0.593201        -1.216235        -0.005205
 C         0.226115         0.035502         0.334022
 O         1.264282         0.049330         0.996999
 C        -1.620207         0.503179        -1.301335
 O        -2.789489         1.457514        -1.486405
 H         0.268633         2.833004        -1.352371
 H        -0.570400         3.320356         0.070358
 H         1.038942         2.522283         0.266450
 H        -1.344543         0.511492         1.889140
 H        -2.653900         1.571530         0.767925
 H        -2.992443        -1.001611        -0.146678
 H        -0.517878        -1.909002         0.757115
 H        -0.301580        -1.654036        -0.984552
 H        -1.329587         0.258344        -2.383556
 H        -3.509627         0.871331        -1.596451
