19
Iteration:  4145charge 0 multiplicity 1
 C        -0.561635         2.712421         0.168095
 C        -0.839290         1.231597         0.014822
 C        -2.364854         0.901335         0.250166
 C        -1.973165        -0.426767        -0.447620
 C        -1.060454        -1.123787         0.568355
 C        -0.085074         0.151452         0.778842
 O         1.050316         0.148662         1.279264
 C        -0.913360         0.424767        -1.300991
 O        -1.441181         0.916282        -2.473776
 H         0.511655         3.015066        -0.186168
 H        -1.329734         3.322346        -0.374731
 H        -0.591857         2.923803         1.356140
 H        -2.824471         0.844025         1.220855
 H        -3.073738         1.334617        -0.346187
 H        -2.564989        -1.131591        -1.122495
 H        -1.386431        -1.256692         1.638392
 H        -0.647244        -2.076988         0.139727
 H         0.098978        -0.032582        -1.482037
 H        -0.828717         1.569162        -2.787920
