19
Iteration:   196charge 0 multiplicity 1
 C        -0.030978         2.507509         0.283301
 C        -0.733860         1.177542         0.081227
 C        -1.945027         0.751633         1.073528
 C        -2.017473        -0.403308         0.006585
 C        -0.637864        -1.165669         0.301398
 C         0.235585         0.001693         0.135943
 O         1.410343         0.059233        -0.278564
 C        -1.590704         0.590109        -1.143363
 O        -2.670918         1.331284        -1.648175
 H         0.333705         2.661187         1.316279
 H         0.898583         2.604953        -0.387785
 H        -0.781419         3.314058         0.125376
 H        -1.702293         0.439275         2.056523
 H        -2.756822         1.464280         1.102226
 H        -2.845984        -1.059825        -0.095366
 H        -0.526714        -1.580620         1.380811
 H        -0.660295        -1.932327        -0.479193
 H        -1.052003         0.063228        -2.002493
 H        -2.577792         2.272587        -1.761968
