19
Iteration:  3426
 C        -0.288506         2.561128        -0.114539
 C        -0.784423         1.194851        -0.149046
 C        -2.272955         0.678822         0.312131
 C        -1.778560        -0.563655        -0.540631
 C        -0.805735        -1.155373         0.397899
 C        -0.084767         0.160158         0.805098
 O         0.665994         0.354913         1.821631
 C        -0.938943         0.423865        -1.431696
 O        -1.721283         1.200776        -2.401825
 H         0.779515         2.539077        -0.199730
 H        -0.539947         3.134245        -0.927233
 H        -0.415063         3.174106         0.791914
 H        -2.567102         0.387641         1.350840
 H        -3.201517         1.279683        -0.149304
 H        -2.554673        -1.301358        -1.048124
 H        -1.175830        -1.678400         1.350290
 H        -0.076496        -1.883368        -0.142720
 H        -0.017459         0.333940        -1.900033
 H        -2.377827         1.542562        -1.855294
