19
Iteration:   572
 C        -0.254987         2.541365        -0.128446
 C        -0.686034         1.167318         0.007016
 C        -1.876426         0.816635         0.899709
 C        -2.016622        -0.451173        -0.095403
 C        -0.688667        -1.202300         0.195897
 C         0.262671        -0.068761         0.204423
 O         1.443563        -0.015985         0.517557
 C        -1.575500         0.570776        -1.174934
 O        -2.539204         1.511660        -1.617438
 H         0.243576         2.841862         0.823386
 H         0.487547         2.665591        -0.965281
 H        -1.153281         3.254250        -0.353764
 H        -1.773099         0.655325         1.928805
 H        -2.588970         1.633654         0.828319
 H        -2.925423        -1.107736        -0.182463
 H        -0.681306        -1.927964         1.036181
 H        -0.553177        -1.887008        -0.676499
 H        -0.917682         0.390959        -2.045974
 H        -3.053981         1.079229        -2.368703
