19
Iteration:   138charge 0 multiplicity 1
 C        -0.244752         2.588577        -0.052454
 C        -0.709793         1.173375         0.021594
 C        -1.711306         0.667358         1.022343
 C        -1.993835        -0.449907        -0.054558
 C        -0.651508        -1.217991        -0.012681
 C         0.266388        -0.011179         0.090987
 O         1.503190        -0.054024         0.156297
 C        -1.673885         0.674866        -1.063291
 O        -2.693383         1.566153        -1.382198
 H        -1.034000         3.323403         0.229878
 H         0.592468         2.537473         0.781636
 H         0.284212         2.740193        -1.013038
 H        -1.456546         0.378866         2.081102
 H        -2.545024         1.401741         1.027377
 H        -2.965523        -0.982018        -0.092429
 H        -0.539958        -1.987978         0.851108
 H        -0.529841        -1.855151        -0.895357
 H        -1.154883         0.234612        -2.009169
 H        -3.458566         0.935301        -1.457181
