19
Iteration:  3733
 C        -0.215912         2.615710        -0.146415
 C        -0.777054         1.199924        -0.130443
 C        -2.264365         0.820016         0.347468
 C        -1.828347        -0.478745        -0.416800
 C        -0.789438        -1.245798         0.422587
 C        -0.063222         0.095368         0.776106
 O         0.600333         0.294060         1.774101
 C        -0.995490         0.460723        -1.372281
 O        -1.759074         1.077585        -2.476447
 H         0.661240         2.613983        -0.842678
 H        -0.916646         3.412515        -0.527547
 H         0.128532         2.788900         1.003172
 H        -2.475434         0.603926         1.339260
 H        -2.971776         1.420709        -0.135393
 H        -2.690180        -1.086459        -0.908471
 H        -1.018595        -1.819294         1.322149
 H         0.114464        -1.643512        -0.076753
 H        -0.092897         0.074431        -1.915038
 H        -1.482005         2.089541        -2.444340
