19
Iteration:   965
 C         0.033521         2.624028        -0.093811
 C        -0.660297         1.197996        -0.098970
 C        -1.923231         0.779918         0.783766
 C        -2.050887        -0.471217        -0.147532
 C        -0.727005        -1.220251         0.213344
 C         0.221292         0.007795         0.386827
 O         1.269240         0.149669         1.002648
 C        -1.552761         0.515551        -1.325962
 O        -2.568923         1.285851        -2.007031
 H        -0.631051         3.368231         0.437404
 H         1.127526         2.595266         0.161183
 H         0.162830         3.064576        -1.225302
 H        -1.867739         0.559484         1.902948
 H        -2.756300         1.537279         0.753541
 H        -2.882235        -1.147980        -0.146491
 H        -0.612635        -1.953405         0.973512
 H        -0.307578        -1.666184        -0.732599
 H        -0.764183         0.131317        -2.025013
 H        -3.245180         1.349974        -1.319829
