19
Iteration:   693charge 0 multiplicity 1
 C        -0.069760         2.622050        -0.139077
 C        -0.633114         1.182034        -0.076361
 C        -1.844460         0.830628         0.884588
 C        -2.044845        -0.423001        -0.062826
 C        -0.732891        -1.301417         0.127092
 C         0.230749         0.012138         0.256802
 O         1.359140         0.047145         0.735072
 C        -1.567514         0.517366        -1.250034
 O        -2.619715         1.417215        -1.753709
 H        -0.814927         3.262135        -0.711755
 H         0.220228         3.059306         0.885241
 H         0.839000         2.703110        -0.726793
 H        -1.617836         0.557742         1.941551
 H        -2.582936         1.621190         0.892300
 H        -3.016962        -0.941633        -0.183301
 H        -0.567261        -1.776776         1.209698
 H        -0.493747        -2.099773        -0.626571
 H        -0.923733         0.077607        -1.978087
 H        -3.409775         0.846637        -1.965055
