19
Iteration:  2333charge 0 multiplicity 1
 C        -0.260164         2.552244        -0.159096
 C        -0.742672         1.149327        -0.035093
 C        -2.158491         0.740521         0.497630
 C        -1.883860        -0.513742        -0.438254
 C        -0.698369        -1.273382         0.368581
 C         0.010306         0.148158         0.672860
 O         0.776289         0.289351         1.617613
 C        -1.108692         0.511860        -1.458550
 O        -1.962551         1.286927        -2.270004
 H        -0.915933         3.202916         0.409063
 H         0.795167         2.516417         0.192238
 H        -0.251286         2.823932        -1.190172
 H        -2.326437         0.443302         1.708642
 H        -2.865777         1.523796         0.219972
 H        -2.662371        -1.078409        -0.966694
 H        -1.072506        -1.547203         1.348239
 H        -0.033143        -1.982093        -0.051634
 H        -0.342606         0.071345        -2.088722
 H        -1.726479         1.046299        -3.176502
