19
Iteration:  1443
 C        -0.066043         2.493553        -0.053589
 C        -0.690157         1.207677        -0.108662
 C        -2.049584         0.735703         0.593421
 C        -1.913486        -0.466211        -0.378134
 C        -0.648313        -1.172543         0.170344
 C         0.138078         0.039725         0.504631
 O         1.024752         0.231876         1.336712
 C        -1.319461         0.555745        -1.385517
 O        -2.442295         1.244962        -1.943144
 H         0.787747         2.608458        -0.689055
 H        -0.829747         3.206469        -0.343051
 H         0.283842         2.863472         0.933234
 H        -2.081789         0.589166         1.683996
 H        -2.868939         1.441828         0.367035
 H        -2.764945        -1.118718        -0.732125
 H        -0.804977        -1.730612         1.125288
 H        -0.200705        -1.908454        -0.509138
 H        -0.652899         0.176696        -2.121889
 H        -2.088886         1.533073        -2.781225
