19
Iteration:  1717charge 0 multiplicity 1
 C        -0.117487         2.612157        -0.141069
 C        -0.688375         1.195187        -0.127590
 C        -2.139226         0.750029         0.521356
 C        -1.905478        -0.490188        -0.379170
 C        -0.697036        -1.218695         0.269222
 C         0.076638         0.071218         0.640871
 O         1.018525         0.206765         1.452691
 C        -1.285408         0.448156        -1.430673
 O        -2.246536         1.259005        -2.110977
 H         0.879470         2.834250        -0.515005
 H        -0.801772         3.305788        -0.656196
 H        -0.019231         3.018319         0.841969
 H        -2.181593         0.559162         1.542960
 H        -3.005404         1.310017         0.247793
 H        -2.679298        -1.250866        -0.573055
 H        -1.064864        -1.874602         1.101864
 H        -0.192578        -1.873898        -0.520895
 H        -0.523551         0.000818        -2.105874
 H        -2.169515         2.115346        -1.731958
