19
Iteration:  3889
 C        -0.520515         2.702770         0.090257
 C        -0.871407         1.271039         0.069846
 C        -2.393341         0.885099         0.232080
 C        -2.028922        -0.500923        -0.495347
 C        -0.925063        -1.071716         0.605376
 C        -0.122055         0.167267         0.884361
 O         0.994379         0.100376         1.336828
 C        -0.874640         0.328108        -1.308751
 O        -1.464716         1.010130        -2.537259
 H         0.139164         3.058162        -0.817301
 H        -1.468581         3.451326         0.220811
 H         0.106964         2.918890         0.959678
 H        -2.637792         0.855192         1.231368
 H        -3.105054         1.514632        -0.326790
 H        -2.716932        -1.174366        -0.910138
 H        -1.441684        -1.572518         1.416944
 H        -0.237514        -1.814360         0.180690
 H         0.053238        -0.128570        -1.632216
 H        -0.804342         1.744550        -2.723468
