19
Iteration:   994charge 0 multiplicity 1
 C        -0.051005         2.536384         0.032584
 C        -0.821605         1.232972         0.035455
 C        -2.052233         0.878994         0.754175
 C        -2.022597        -0.429181        -0.193783
 C        -0.753823        -1.122583         0.307690
 C         0.148269         0.096980         0.393277
 O         1.333381         0.093227         0.657771
 C        -1.414613         0.486809        -1.261255
 O        -2.417483         1.135434        -1.990545
 H        -0.054823         3.034916         0.955268
 H         0.986004         2.289613        -0.135224
 H        -0.408085         3.228518        -0.724629
 H        -1.972762         0.714430         1.806804
 H        -2.935795         1.422649         0.536989
 H        -2.866429        -1.123826        -0.424659
 H        -0.864099        -1.453743         1.374816
 H        -0.248671        -1.962967        -0.320700
 H        -0.622060         0.103271        -1.882326
 H        -2.538837         1.931284        -1.370671
