19
Iteration:  3212
 C        -0.231398         2.619562         0.026328
 C        -0.816483         1.241688        -0.107193
 C        -2.299980         0.835791         0.281570
 C        -1.804237        -0.523457        -0.555879
 C        -0.738210        -1.121497         0.389054
 C        -0.143912         0.151087         0.797242
 O         0.688669         0.281148         1.654941
 C        -0.955075         0.321450        -1.395131
 O        -1.753655         1.112016        -2.293567
 H         0.825328         2.712712         0.259334
 H        -0.598397         3.266086        -0.828434
 H        -0.752204         3.090563         0.845114
 H        -2.480078         0.830531         1.367206
 H        -2.905222         1.376280        -0.405624
 H        -2.444656        -1.198790        -1.004710
 H        -1.207385        -1.535445         1.250613
 H        -0.079971        -1.792997        -0.132880
 H        -0.086888        -0.023191        -1.885759
 H        -1.841090         0.703124        -3.134883
