19
Iteration:  1494
 C        -0.158464         2.536285        -0.168952
 C        -0.655514         1.192351        -0.056904
 C        -1.993575         0.692876         0.620876
 C        -1.897738        -0.494569        -0.344669
 C        -0.604743        -1.183686         0.118708
 C         0.156014         0.126501         0.555072
 O         0.949345         0.138333         1.450375
 C        -1.381070         0.488248        -1.413696
 O        -2.348223         1.395798        -1.975082
 H        -0.297704         2.997914        -1.183103
 H        -0.523567         3.281745         0.527022
 H         0.991648         2.600163        -0.184605
 H        -2.144881         0.528774         1.681218
 H        -2.884664         1.257486         0.354923
 H        -2.845904        -1.048068        -0.408196
 H        -0.760774        -1.773737         1.066805
 H        -0.142748        -1.770569        -0.757245
 H        -0.557381         0.105927        -2.187332
 H        -2.516939         0.997054        -2.891647
