19
Iteration:   431
 C        -0.221580         2.682873        -0.114491
 C        -0.660286         1.178933         0.056691
 C        -1.882678         0.795066         0.946666
 C        -2.028851        -0.441011        -0.032920
 C        -0.746178        -1.228175         0.177958
 C         0.302115        -0.009258         0.218891
 O         1.507423        -0.074231         0.323927
 C        -1.587879         0.511373        -1.172871
 O        -2.644437         1.437393        -1.565923
 H         0.763538         2.684777        -0.573459
 H        -0.974256         3.251008        -0.664777
 H        -0.097134         3.166541         0.867080
 H        -1.491563         0.488759         1.918711
 H        -2.733530         1.464158         1.116461
 H        -3.025605        -0.905203        -0.296900
 H        -0.581051        -1.789376         1.131241
 H        -0.593585        -1.905619        -0.667429
 H        -1.096980         0.107182        -2.083921
 H        -2.550797         1.757827        -2.512695
