19
Iteration:  1236
 C        -0.153294         2.660485        -0.218409
 C        -0.621231         1.199346        -0.105908
 C        -2.032650         0.643311         0.639262
 C        -2.021596        -0.529521        -0.311361
 C        -0.669594        -1.191513         0.248140
 C         0.114638         0.061768         0.514575
 O         1.118100         0.156323         1.206026
 C        -1.412133         0.468393        -1.333297
 O        -2.270847         1.358700        -1.954417
 H        -0.914834         3.303043         0.126831
 H         0.760426         2.846939         0.334271
 H        -0.041559         2.930708        -1.329511
 H        -1.977170         0.402421         1.677329
 H        -2.818025         1.408639         0.605239
 H        -2.959996        -1.157261        -0.440624
 H        -0.546094        -1.822837         1.095372
 H        -0.247735        -1.675417        -0.528922
 H        -0.667946         0.179258        -2.028343
 H        -3.069566         1.609502        -1.403719
