19
Iteration:   849charge 0 multiplicity 1
 C        -0.044393         2.599052        -0.020475
 C        -0.700857         1.227513        -0.065205
 C        -1.971625         0.833486         0.814301
 C        -2.040338        -0.417828        -0.104771
 C        -0.765744        -1.229340         0.265972
 C         0.173671         0.015681         0.339087
 O         1.339028         0.123630         0.654720
 C        -1.456567         0.479075        -1.240410
 O        -2.549702         1.215715        -1.866910
 H         0.813416         2.634567        -0.731921
 H        -0.699880         3.433729        -0.304987
 H         0.284937         2.808949         0.962351
 H        -1.841425         0.625900         1.863903
 H        -2.743943         1.626003         0.753585
 H        -3.002989        -0.953585        -0.250226
 H        -0.685265        -1.827697         1.265014
 H        -0.524301        -1.909143        -0.590149
 H        -0.860364        -0.002377        -1.998335
 H        -2.184107         2.049192        -2.118594
