19
Iteration:  4099
 C        -0.255853         2.644024         0.143014
 C        -0.914222         1.221043        -0.002437
 C        -2.411716         0.762815         0.143394
 C        -1.885026        -0.538636        -0.467157
 C        -0.927562        -1.090265         0.585888
 C        -0.136650         0.190719         0.836949
 O         0.944413         0.254890         1.380977
 C        -0.930688         0.390104        -1.355484
 O        -1.645470         1.060707        -2.434862
 H         0.834260         2.467780         0.467740
 H        -0.302198         3.400680        -0.693592
 H        -0.823828         3.121673         1.039535
 H        -2.881810         0.731678         1.157742
 H        -3.098346         1.379472        -0.488141
 H        -2.717114        -1.189461        -0.934028
 H        -1.539514        -1.510693         1.428133
 H        -0.162782        -1.791946         0.250065
 H         0.049192        -0.109619        -1.639709
 H        -1.075786         1.503046        -3.006707
