19
Iteration:  1853
 C        -0.405709         2.609986         0.047251
 C        -0.895973         1.207278         0.084173
 C        -2.364337         0.770503         0.502883
 C        -2.019806        -0.526572        -0.329127
 C        -0.810081        -1.069072         0.506580
 C         0.030286         0.110472         0.655921
 O         1.237946         0.129779         0.961484
 C        -1.179914         0.380248        -1.280032
 O        -1.764542         1.315577        -2.243649
 H        -1.192816         3.272986         0.482992
 H         0.516290         2.604741         0.672548
 H        -0.137575         2.807832        -1.013610
 H        -2.628743         0.630961         1.639396
 H        -3.109809         1.446989        -0.021383
 H        -2.680650        -1.338747        -0.636450
 H        -1.042792        -1.460555         1.546328
 H        -0.235453        -1.882296        -0.056126
 H        -0.279001        -0.104197        -1.821747
 H        -1.506279         1.120556        -3.203675
