19
Iteration:  3968charge 0 multiplicity 1
 C        -0.162675         2.599621         0.025081
 C        -0.778784         1.223196        -0.105946
 C        -2.369111         0.832405         0.191393
 C        -1.835819        -0.599584        -0.533643
 C        -0.833236        -1.179570         0.431750
 C        -0.063717         0.139624         0.802249
 O         0.714898         0.354993         1.731415
 C        -0.988191         0.392149        -1.407073
 O        -1.810776         1.113007        -2.362303
 H         0.981805         2.392124        -0.194039
 H        -0.473221         3.391207        -0.767557
 H        -0.234083         3.087652         1.082189
 H        -2.524009         0.645120         1.178060
 H        -3.073548         1.376498        -0.427236
 H        -2.791519        -1.119217        -0.844085
 H        -1.138347        -1.746963         1.375512
 H        -0.183856        -1.967139        -0.018739
 H        -0.072620         0.105009        -1.932979
 H        -1.067521         1.468286        -2.860532
