19
Iteration:  3004
 C        -0.484726         2.736010         0.119154
 C        -0.970828         1.295881        -0.029817
 C        -2.357916         0.772794         0.289865
 C        -1.856188        -0.502913        -0.455799
 C        -1.015005        -1.178892         0.616473
 C        -0.149213         0.133521         0.824094
 O         0.981461         0.218018         1.271605
 C        -0.852505         0.430570        -1.336310
 O        -1.418109         0.995953        -2.492266
 H         0.597258         2.752292         0.180720
 H        -0.698393         3.288391        -0.778638
 H        -0.863421         3.234756         0.984684
 H        -2.552382         0.593788         1.310229
 H        -3.012712         1.449017        -0.202354
 H        -2.590465        -1.130243        -0.985270
 H        -1.714507        -1.482110         1.416547
 H        -0.402748        -2.038012         0.290233
 H         0.240137         0.135382        -1.459269
 H        -2.240658         1.535479        -2.238451
