19
Iteration:  3858
 C        -0.478304         2.695919         0.109746
 C        -0.868458         1.240215         0.142798
 C        -2.335159         0.838104         0.164311
 C        -2.014778        -0.562856        -0.500512
 C        -0.999964        -1.120761         0.556093
 C        -0.111717         0.147243         0.745678
 O         0.970903         0.234456         1.325593
 C        -0.863205         0.352153        -1.278517
 O        -1.474388         1.053882        -2.387841
 H         0.098355         2.832771        -0.869620
 H        -1.323961         3.462451         0.110061
 H         0.244760         2.884574         0.870866
 H        -2.717717         0.946001         1.128695
 H        -3.049582         1.435285        -0.434578
 H        -2.860160        -1.171271        -0.779715
 H        -1.668288        -1.281189         1.451462
 H        -0.468273        -2.034018         0.226881
 H         0.150133        -0.033702        -1.642782
 H        -0.758524         1.272699        -3.007999
