19
Iteration:   960
 C        -0.012523         2.596841        -0.147247
 C        -0.672516         1.213582        -0.068754
 C        -1.866522         0.792540         0.797555
 C        -2.021803        -0.476040        -0.174693
 C        -0.711068        -1.218702         0.156323
 C         0.223752        -0.011724         0.401347
 O         1.250346         0.153138         1.055833
 C        -1.544543         0.506706        -1.333992
 O        -2.583061         1.318717        -1.987940
 H        -0.598017         3.378690         0.288087
 H         0.989104         2.528345         0.250493
 H         0.165154         2.848309        -1.141106
 H        -1.660139         0.695545         1.843758
 H        -2.634945         1.543610         0.736745
 H        -2.969747        -1.089827        -0.093656
 H        -0.594464        -1.914564         1.051150
 H        -0.279896        -1.791907        -0.745584
 H        -0.903245         0.103448        -2.109334
 H        -3.411228         1.325003        -1.410299
