19
Iteration:   961charge 0 multiplicity 1
 C        -0.004723         2.605107        -0.133306
 C        -0.670310         1.211675        -0.072987
 C        -1.877350         0.790956         0.795731
 C        -2.028488        -0.476492        -0.171158
 C        -0.717580        -1.217789         0.169841
 C         0.224176        -0.010893         0.398041
 O         1.254543         0.153598         1.046889
 C        -1.545525         0.507362        -1.334588
 O        -2.582602         1.313712        -1.991867
 H        -0.590300         3.351327         0.295807
 H         1.012906         2.540775         0.215523
 H         0.176720         2.896011        -1.167583
 H        -1.707666         0.680287         1.835202
 H        -2.633837         1.526872         0.750895
 H        -2.958952        -1.110317        -0.092317
 H        -0.584620        -1.926076         1.040798
 H        -0.268184        -1.781181        -0.773762
 H        -0.872875         0.113566        -2.079109
 H        -3.370838         1.327403        -1.401556
