19
Iteration:  1822
 C        -0.329467         2.617730        -0.028635
 C        -0.740394         1.159222        -0.010500
 C        -2.130079         0.784162         0.510357
 C        -1.949544        -0.523300        -0.423237
 C        -0.887950        -1.218073         0.402971
 C         0.038185         0.078110         0.643872
 O         1.102001         0.219733         1.168889
 C        -1.153676         0.448640        -1.262358
 O        -2.024658         1.274540        -2.161246
 H        -1.087891         3.321276        -0.159313
 H         0.229613         3.016096         0.862350
 H         0.487155         2.969877        -0.734558
 H        -2.301866         0.586788         1.662851
 H        -2.839292         1.523852         0.023032
 H        -2.732578        -1.147016        -0.884946
 H        -1.168818        -1.472878         1.394454
 H        -0.351033        -2.080152         0.064389
 H        -0.355809         0.121760        -1.949989
 H        -1.759455         1.106973        -3.057868
