19
Iteration:  3211
 C        -0.224259         2.610382         0.016062
 C        -0.817705         1.242201        -0.105075
 C        -2.300124         0.831170         0.276724
 C        -1.797439        -0.518398        -0.549892
 C        -0.731709        -1.122209         0.395257
 C        -0.139230         0.141457         0.800424
 O         0.677157         0.283044         1.654995
 C        -0.967424         0.331101        -1.397739
 O        -1.759195         1.112455        -2.288465
 H         0.840247         2.701935         0.268215
 H        -0.618813         3.278373        -0.801232
 H        -0.759059         3.126190         0.876141
 H        -2.451253         0.835427         1.354936
 H        -2.882144         1.399116        -0.437777
 H        -2.430734        -1.208737        -1.001292
 H        -1.199043        -1.532169         1.245543
 H        -0.087860        -1.764698        -0.158655
 H        -0.040794        -0.015034        -1.933734
 H        -1.806340         0.677696        -3.161281
