19
Iteration:   304
 C        -0.166324         2.570916        -0.163360
 C        -0.625485         1.146125        -0.121624
 C        -1.738292         0.728593         0.996574
 C        -1.996577        -0.402978        -0.065141
 C        -0.671351        -1.146931         0.032344
 C         0.302520        -0.051385         0.159092
 O         1.487547        -0.056032         0.418786
 C        -1.713873         0.577875        -1.140023
 O        -2.802311         1.482366        -1.381380
 H        -0.643691         3.107372        -1.031052
 H        -0.376216         3.192262         0.802282
 H         0.918806         2.645980        -0.294391
 H        -1.285164         0.257576         1.907639
 H        -2.653224         1.324048         1.060936
 H        -2.876073        -0.974819        -0.012968
 H        -0.706913        -1.871640         0.938327
 H        -0.563066        -1.892138        -0.753896
 H        -1.315748         0.270539        -2.154847
 H        -2.631532         2.063487        -2.110070
