19
Iteration:  3524
 C        -0.399730         2.650638         0.077320
 C        -0.829355         1.266077         0.034323
 C        -2.316565         0.859741         0.288829
 C        -1.868186        -0.503358        -0.542055
 C        -0.855350        -1.143757         0.416198
 C        -0.083436         0.153925         0.801194
 O         0.852520         0.305774         1.598900
 C        -0.954764         0.319037        -1.433661
 O        -1.658359         1.007369        -2.441109
 H         0.599080         2.687040        -0.285636
 H        -0.936710         3.407031        -0.350696
 H        -0.225737         2.906627         1.136555
 H        -2.732717         0.723521         1.324421
 H        -3.109361         1.433360        -0.270152
 H        -2.713987        -1.236748        -1.033857
 H        -1.388531        -1.601155         1.302114
 H        -0.174190        -1.967916         0.027910
 H        -0.095874        -0.245475        -1.920721
 H        -1.115685         1.667152        -2.824998
