19
Iteration:  2794charge 0 multiplicity 1
 C        -0.358482         2.681821         0.091266
 C        -0.859692         1.201592         0.052231
 C        -2.297323         0.782649         0.291435
 C        -1.961539        -0.487899        -0.470746
 C        -0.883918        -1.149787         0.444789
 C        -0.122941         0.096397         0.864593
 O         0.947189         0.350425         1.380608
 C        -1.009543         0.257191        -1.323772
 O        -1.517751         1.134557        -2.461017
 H        -0.236406         3.115025         1.096519
 H         0.621662         2.570868        -0.343898
 H        -1.061451         3.342728        -0.544721
 H        -2.827095         0.749697         1.223080
 H        -2.951017         1.348049        -0.399265
 H        -2.774197        -1.151790        -1.003174
 H        -1.321682        -1.618216         1.378429
 H        -0.370115        -1.916695        -0.204639
 H        -0.061458        -0.176379        -1.814989
 H        -2.429550         1.408081        -2.167329
