19
Iteration:  1420charge 0 multiplicity 1
 C        -0.146530         2.573069         0.005100
 C        -0.768136         1.230795        -0.112480
 C        -2.080581         0.689630         0.641097
 C        -1.977299        -0.519523        -0.303227
 C        -0.701176        -1.201475         0.256315
 C         0.093229         0.092087         0.582907
 O         1.158199         0.215607         1.136615
 C        -1.353618         0.455997        -1.399157
 O        -2.300185         1.292290        -2.079107
 H         0.877894         2.462857        -0.138270
 H        -0.543083         3.335488        -0.633667
 H        -0.240023         3.044108         1.045255
 H        -1.909681         0.598881         1.710097
 H        -2.928323         1.360813         0.534886
 H        -2.862395        -1.173619        -0.547748
 H        -0.930808        -1.855123         1.142446
 H        -0.025931        -1.821684        -0.400942
 H        -0.689958        -0.009071        -2.118734
 H        -1.753561         2.096435        -2.235046
