19
Iteration:  4598charge 0 multiplicity 1
 C        -0.093645         2.553450         0.047293
 C        -0.782953         1.220552        -0.142213
 C        -2.305678         0.733729         0.174852
 C        -1.834071        -0.557916        -0.507276
 C        -0.780384        -1.167055         0.530260
 C        -0.118867         0.121410         0.838762
 O         0.728657         0.376669         1.730893
 C        -1.024856         0.423136        -1.505859
 O        -1.862594         1.140790        -2.382190
 H         0.946213         2.549467         0.025336
 H        -0.376711         3.186898        -0.788848
 H        -0.460194         3.159966         0.903250
 H        -2.467557         0.650179         1.370577
 H        -3.130180         1.363764        -0.388151
 H        -2.470722        -1.299458        -0.953258
 H        -1.527436        -1.340244         1.343381
 H        -0.166592        -2.083553         0.225608
 H        -0.225239         0.048856        -2.158784
 H        -1.179642         1.571276        -3.045963
