19
Iteration:  3083
 C        -0.362932         2.685878         0.044645
 C        -0.869484         1.277308         0.001459
 C        -2.314064         0.687349         0.268825
 C        -1.930777        -0.544404        -0.440903
 C        -0.961029        -1.149851         0.560914
 C        -0.082102         0.148656         0.749707
 O         0.854835         0.279388         1.540047
 C        -0.902550         0.459171        -1.383600
 O        -1.524660         1.016010        -2.563708
 H         0.374993         2.930909        -0.737841
 H        -1.133640         3.506850         0.090126
 H         0.162032         2.779995         0.954864
 H        -2.564487         0.731665         1.309513
 H        -3.109280         1.178185        -0.177062
 H        -2.703263        -1.055605        -0.933633
 H        -1.364363        -1.365582         1.575771
 H        -0.420014        -2.056845         0.185621
 H         0.080095         0.022198        -1.861555
 H        -1.997871         1.838499        -2.314075
