19
Iteration:  2696
 C        -0.400804         2.763845         0.152156
 C        -0.984930         1.279226         0.032496
 C        -2.451148         0.890157         0.251403
 C        -2.042085        -0.482579        -0.394103
 C        -0.849493        -1.200916         0.473123
 C        -0.020309         0.111635         0.706233
 O         1.040790         0.208026         1.289390
 C        -0.954192         0.404060        -1.271395
 O        -1.462930         0.963302        -2.437239
 H        -1.266312         3.378140         0.466135
 H         0.053505         2.561858         1.113615
 H         0.376303         3.201088        -0.597162
 H        -2.694523         1.013685         1.245982
 H        -3.255780         1.332268        -0.213130
 H        -2.669932        -1.170499        -1.047503
 H        -1.089297        -1.481436         1.496128
 H        -0.339718        -1.905161        -0.196990
 H        -0.004431        -0.119783        -1.708886
 H        -2.380399         1.270548        -2.269076
