19
Iteration:   508
 C        -0.116754         2.512763         0.232892
 C        -0.797473         1.121589         0.143112
 C        -2.076748         0.900963         0.925263
 C        -2.034403        -0.435839         0.035708
 C        -0.710739        -1.174893         0.455315
 C         0.204703        -0.005564         0.211782
 O         1.357754         0.088366        -0.130312
 C        -1.469264         0.532508        -1.167727
 O        -2.355997         1.363325        -1.812505
 H        -0.963917         3.204427         0.170640
 H         0.471769         2.679221         1.174594
 H         0.519199         2.717691        -0.599182
 H        -2.033218         0.735909         1.965883
 H        -2.815863         1.656119         0.633624
 H        -2.913524        -1.125971        -0.030307
 H        -0.648748        -1.548511         1.518908
 H        -0.438672        -1.921521        -0.238481
 H        -0.689178         0.139876        -1.903343
 H        -2.982190         0.833635        -2.347204
