19
Iteration:  4134
 C        -0.509388         2.697254         0.168340
 C        -0.857713         1.282475         0.063942
 C        -2.352217         0.825731         0.188763
 C        -1.996484        -0.441324        -0.472672
 C        -1.051524        -1.070370         0.559482
 C        -0.055534         0.099223         0.764287
 O         1.015261         0.202408         1.272101
 C        -0.835960         0.382627        -1.269767
 O        -1.494630         0.926716        -2.444201
 H         0.593513         3.072953         0.029875
 H        -1.239606         3.343235        -0.400401
 H        -0.785036         2.939483         1.365357
 H        -2.831491         0.833541         1.149288
 H        -2.701623         1.518356        -0.483281
 H        -2.961693        -0.999743        -0.769577
 H        -1.562093        -1.458535         1.500228
 H        -0.489593        -1.969729         0.158332
 H         0.051666        -0.186085        -1.621926
 H        -0.962199         1.535738        -2.878964
