19
Iteration:  4381
 C        -0.392305         2.678424         0.062879
 C        -0.886236         1.255779         0.067061
 C        -2.359902         0.854677         0.203793
 C        -1.911946        -0.540288        -0.462894
 C        -0.925543        -1.160411         0.521319
 C        -0.101638         0.181331         0.882168
 O         0.950880         0.193815         1.446392
 C        -0.978360         0.409705        -1.341605
 O        -1.572110         0.991991        -2.501634
 H         0.542421         2.697263        -0.629478
 H        -1.082081         3.554204        -0.195706
 H        -0.023265         2.986785         1.141784
 H        -2.975310         0.961360         1.016476
 H        -2.840547         1.465188        -0.633341
 H        -2.676427        -1.132716        -1.034236
 H        -1.377272        -1.447607         1.506804
 H        -0.222898        -1.925662         0.183748
 H        -0.062898        -0.122743        -1.795736
 H        -1.144105         1.842126        -2.536324
