19
Iteration:  1004charge 0 multiplicity 1
 C        -0.110412         2.548003         0.055846
 C        -0.771686         1.226657         0.060889
 C        -2.129119         0.859392         0.748865
 C        -2.012844        -0.476806        -0.148802
 C        -0.765871        -1.135639         0.460329
 C         0.139448         0.047657         0.375804
 O         1.347130         0.112150         0.536916
 C        -1.357841         0.494117        -1.263375
 O        -2.350894         1.181275        -2.013908
 H         0.024095         2.945512         1.047824
 H         0.869236         2.434467        -0.412475
 H        -0.686664         3.232906        -0.500402
 H        -2.125670         0.650149         1.812049
 H        -2.897678         1.579292         0.478378
 H        -2.963711        -1.034148        -0.415141
 H        -0.951187        -1.645819         1.445615
 H        -0.425975        -1.985214        -0.223633
 H        -0.614467         0.212421        -2.002884
 H        -2.543574         2.160672        -1.762820
