19
Iteration:  4463
 C        -0.305632         2.602550         0.122273
 C        -0.950081         1.260703         0.036190
 C        -2.454332         0.855474         0.108375
 C        -1.920070        -0.572440        -0.510272
 C        -0.926681        -1.085366         0.537298
 C        -0.102716         0.198995         0.871717
 O         1.003204         0.244672         1.374233
 C        -0.991696         0.395686        -1.334628
 O        -1.572745         1.079630        -2.363526
 H         0.759720         2.510848         0.343582
 H        -0.468961         3.018489        -0.856999
 H        -0.700393         3.140795         0.927954
 H        -2.834380         0.656012         1.210126
 H        -3.088175         1.381734        -0.590093
 H        -2.654193        -1.275851        -0.918616
 H        -1.443217        -1.503095         1.429117
 H        -0.091900        -1.823038         0.338375
 H        -0.116399        -0.143264        -1.682542
 H        -0.909634         0.998577        -3.011065
