19
Iteration:  1551charge 0 multiplicity 1
 C        -0.304393         2.628131         0.054012
 C        -0.793139         1.214966         0.021290
 C        -2.266414         0.740082         0.573722
 C        -1.991383        -0.530424        -0.412533
 C        -0.744209        -1.164004         0.382622
 C         0.131736         0.068645         0.551063
 O         1.227409         0.155101         1.038754
 C        -1.282459         0.454357        -1.284760
 O        -2.011241         1.361098        -2.098699
 H        -1.147960         3.229772         0.129525
 H         0.482980         2.812125         0.802960
 H         0.181871         2.805537        -0.948303
 H        -2.379663         0.535854         1.602025
 H        -3.080213         1.368971         0.193074
 H        -2.747144        -1.291403        -0.732596
 H        -1.044071        -1.533025         1.416028
 H        -0.205823        -2.064016        -0.138025
 H        -0.473002         0.173012        -2.021409
 H        -2.510695         0.784027        -2.640952
