19
Iteration:  4549
 C        -0.182983         2.701925        -0.086708
 C        -0.786865         1.276353        -0.077348
 C        -2.236941         0.923566         0.348212
 C        -1.878094        -0.503693        -0.456971
 C        -0.771382        -1.233687         0.290723
 C        -0.094566         0.102766         0.784254
 O         0.631283         0.250775         1.760891
 C        -0.983984         0.322924        -1.362120
 O        -1.796496         1.012618        -2.404706
 H         0.869689         2.748130         0.454750
 H        -0.038979         3.268390        -1.071057
 H        -0.887699         3.342353         0.467982
 H        -2.579020         0.880400         1.368003
 H        -2.838711         1.455381        -0.335399
 H        -2.689596        -1.125947        -0.892310
 H        -0.942773        -1.803880         1.188553
 H         0.041054        -1.590199        -0.371692
 H        -0.161148        -0.297661        -1.873206
 H        -1.401640         1.830937        -2.571555
