19
Iteration:  3106
 C        -0.363998         2.609432        -0.062739
 C        -0.742550         1.220067        -0.026109
 C        -2.322962         0.842582         0.281545
 C        -1.853954        -0.538674        -0.538742
 C        -0.812561        -1.113140         0.420287
 C        -0.160360         0.221887         0.910332
 O         0.805297         0.239976         1.677770
 C        -0.997452         0.386886        -1.411355
 O        -1.636026         1.027428        -2.475321
 H         0.338808         2.969199        -0.854637
 H        -1.201305         3.377342         0.045774
 H         0.211505         2.711430         0.866726
 H        -2.693560         0.695756         1.289076
 H        -2.988626         1.536585        -0.067083
 H        -2.470967        -1.327937        -0.941031
 H        -1.266221        -1.683753         1.276655
 H        -0.108318        -1.821317        -0.100388
 H        -0.112210        -0.210841        -1.985315
 H        -1.845814         1.934431        -2.312351
