19
Iteration:  2771
 C        -0.395336         2.592719         0.160041
 C        -0.881179         1.203456        -0.026402
 C        -2.386378         0.884150         0.211605
 C        -1.965374        -0.536737        -0.483892
 C        -0.879309        -1.111876         0.560489
 C        -0.081901         0.167398         0.778295
 O         1.006595         0.236871         1.279789
 C        -0.943217         0.453747        -1.267768
 O        -1.520711         1.020932        -2.387874
 H        -0.896738         3.006506         1.020075
 H         0.671619         2.663737         0.244876
 H        -0.865889         3.117460        -0.732899
 H        -2.931268         0.732576         1.142739
 H        -3.123682         1.385577        -0.455736
 H        -2.815355        -1.189360        -0.987107
 H        -1.381098        -1.498871         1.498231
 H        -0.258198        -1.941687         0.127182
 H         0.080790         0.265800        -1.720932
 H        -2.319719         1.507737        -2.269465
