19
Iteration:   351charge 0 multiplicity 1
 C         0.164120         2.443467        -0.333770
 C        -0.740795         1.207914        -0.141581
 C        -1.772099         0.663766         1.028267
 C        -1.969500        -0.448415        -0.067834
 C        -0.582660        -1.203932        -0.087741
 C         0.208485         0.062432         0.124062
 O         1.293519         0.113087         0.671025
 C        -1.695529         0.614209        -1.188669
 O        -2.875145         1.384429        -1.340031
 H        -0.028559         3.322133         0.312714
 H         1.144018         2.163699        -0.051609
 H         0.230601         2.844661        -1.417618
 H        -1.332025         0.323509         1.892517
 H        -2.529429         1.391248         1.141588
 H        -2.966083        -0.887648        -0.136628
 H        -0.503860        -2.042560         0.570224
 H        -0.297625        -1.620302        -1.129273
 H        -1.365262         0.193378        -2.204538
 H        -2.886863         2.290988        -0.934750
