19
Iteration:  2529
 C        -0.254708         2.627642         0.109800
 C        -0.762160         1.176850         0.038750
 C        -2.247860         0.807977         0.289116
 C        -1.940212        -0.522341        -0.418507
 C        -0.794143        -1.193641         0.405148
 C        -0.037161         0.084359         0.791915
 O         0.916394         0.352494         1.489175
 C        -1.113161         0.354873        -1.386532
 O        -1.790467         1.145871        -2.471740
 H         0.530004         2.614856        -0.673264
 H        -1.093102         3.225905        -0.375118
 H         0.048653         3.046968         1.082470
 H        -2.744933         0.736545         1.189969
 H        -2.872394         1.369952        -0.302951
 H        -2.568935        -1.326298        -0.956594
 H        -1.385443        -1.649135         1.231184
 H        -0.107254        -1.857683        -0.100769
 H        -0.195841         0.103076        -2.003811
 H        -2.303849         1.745785        -1.993019
