19
Iteration:  1370charge 0 multiplicity 1
 C        -0.416941         2.683995         0.118421
 C        -0.811337         1.312777         0.184472
 C        -2.228824         0.723263         0.565270
 C        -1.963445        -0.458805        -0.252027
 C        -0.820647        -1.143931         0.444266
 C         0.073912         0.037014         0.585663
 O         1.303118         0.045100         0.600900
 C        -1.240781         0.419945        -1.220540
 O        -1.932448         1.236681        -2.169036
 H         0.568802         2.940659         0.697254
 H        -0.387448         3.068546        -0.927803
 H        -1.165745         3.353438         0.454663
 H        -2.299496         0.511993         1.657075
 H        -3.126678         1.338857         0.361822
 H        -2.776290        -1.114277        -0.492950
 H        -1.101989        -1.626099         1.368332
 H        -0.273075        -1.896160        -0.136769
 H        -0.424206         0.082989        -1.971739
 H        -2.509679         1.945496        -1.716838
