19
Iteration:   449
 C        -0.202277         2.545717        -0.008823
 C        -0.736693         1.187724         0.056614
 C        -1.913265         0.736198         1.009822
 C        -2.017133        -0.391234        -0.029532
 C        -0.726042        -1.184891         0.275661
 C         0.275708        -0.019219         0.251005
 O         1.483372        -0.032127         0.142229
 C        -1.584306         0.638885        -1.104144
 O        -2.580100         1.413454        -1.703452
 H         0.332071         2.774689        -0.964024
 H        -0.975029         3.303432        -0.027561
 H         0.515639         2.936887         0.871842
 H        -1.868540         0.555795         2.070403
 H        -2.708773         1.430238         0.765990
 H        -2.950550        -0.992722        -0.046960
 H        -0.804684        -1.738585         1.195253
 H        -0.338474        -2.041252        -0.406514
 H        -0.845345         0.247105        -1.885257
 H        -2.439334         1.277528        -2.688691
