19
Iteration:  2767
 C        -0.412041         2.624977         0.166628
 C        -0.881387         1.241209        -0.026813
 C        -2.365620         0.813449         0.208271
 C        -1.964485        -0.532012        -0.497333
 C        -0.895459        -1.082969         0.573132
 C        -0.092677         0.140959         0.796410
 O         1.020905         0.216857         1.262666
 C        -0.943896         0.423522        -1.263742
 O        -1.531088         1.021439        -2.413961
 H        -0.921824         3.044705         1.033477
 H         0.689228         2.718485         0.309223
 H        -0.606794         3.199516        -0.711225
 H        -3.008300         0.748966         1.180534
 H        -3.145836         1.383792        -0.411807
 H        -2.684261        -1.104474        -1.006099
 H        -1.345333        -1.258248         1.539475
 H        -0.307003        -1.861199         0.115328
 H         0.061653         0.221199        -1.541863
 H        -2.360957         1.549030        -2.242364
