19
Iteration:  1221charge 0 multiplicity 1
 C        -0.216324         2.536992        -0.301628
 C        -0.719163         1.138054        -0.159498
 C        -1.977785         0.741711         0.723856
 C        -1.925669        -0.499692        -0.289747
 C        -0.623600        -1.162781         0.115472
 C         0.196618         0.112400         0.496569
 O         1.059262         0.126224         1.339344
 C        -1.397486         0.442294        -1.362961
 O        -2.306086         1.458804        -1.873647
 H        -0.975885         3.378873        -0.219033
 H         0.597012         2.668192         0.453629
 H         0.197119         2.715717        -1.308463
 H        -1.814853         0.560134         1.842964
 H        -2.791615         1.457079         0.552726
 H        -2.735509        -1.176410        -0.588799
 H        -0.891422        -1.817479         0.959527
 H        -0.050453        -1.846149        -0.593232
 H        -0.956339        -0.107419        -2.213769
 H        -3.145503         1.120450        -1.662351
