19
Iteration:  2647charge 0 multiplicity 1
 C        -0.327388         2.641718        -0.003670
 C        -0.843261         1.182910        -0.107867
 C        -2.361799         0.719907         0.347433
 C        -1.890044        -0.493408        -0.444642
 C        -0.891847        -1.233793         0.495261
 C         0.013961         0.113857         0.745850
 O         0.919866         0.337822         1.541665
 C        -1.013465         0.402694        -1.411207
 O        -1.643372         1.172516        -2.444811
 H        -1.001908         3.358698        -0.473952
 H        -0.081033         2.885015         1.054091
 H         0.615298         2.530795        -0.444838
 H        -2.712482         0.498764         1.436857
 H        -3.105257         1.465097        -0.168758
 H        -2.635163        -1.210903        -0.840066
 H        -1.408191        -1.359209         1.475047
 H        -0.356412        -2.062700         0.011497
 H        -0.085665         0.094862        -1.777176
 H        -2.352836         1.641374        -1.950358
