19
Iteration:  1166
 C        -0.014170         2.534971        -0.218153
 C        -0.734575         1.209627        -0.164928
 C        -1.980768         0.747060         0.705717
 C        -1.949455        -0.430766        -0.239717
 C        -0.620945        -1.133780         0.122648
 C         0.184729         0.085279         0.456399
 O         1.067055         0.143767         1.272807
 C        -1.404637         0.519059        -1.414427
 O        -2.533100         1.199058        -1.841271
 H        -0.175562         3.150412        -1.199376
 H        -0.268795         3.246693         0.621864
 H         1.072804         2.327340        -0.198480
 H        -1.822933         0.400704         1.792735
 H        -2.853865         1.430829         0.734187
 H        -2.802889        -1.060180        -0.475997
 H        -0.739213        -1.761300         1.018747
 H        -0.213910        -1.758938        -0.660220
 H        -0.795115         0.072454        -2.207580
 H        -2.199218         2.098563        -1.963997
