19
Iteration:  2397charge 0 multiplicity 1
 C        -0.370804         2.537885         0.136675
 C        -0.901518         1.265197         0.085464
 C        -2.341848         0.805735         0.342485
 C        -1.861273        -0.462592        -0.451274
 C        -0.875699        -1.150802         0.537523
 C        -0.073260         0.149737         0.749119
 O         1.053146         0.229268         1.218454
 C        -0.978420         0.501434        -1.332299
 O        -1.726933         1.102498        -2.423546
 H         0.051944         2.748762         1.151551
 H         0.448368         2.545905        -0.619636
 H        -1.088717         3.319095        -0.076645
 H        -2.784925         0.770001         1.310353
 H        -2.846185         1.571846        -0.187155
 H        -2.570977        -1.210967        -0.973355
 H        -1.244053        -1.602546         1.441669
 H        -0.283755        -1.921853         0.086362
 H        -0.028164         0.067733        -1.678610
 H        -2.506107         0.662054        -2.660276
