19
Iteration:  3488
 C        -0.277335         2.662971         0.035293
 C        -0.804325         1.222533        -0.048001
 C        -2.242731         0.841432         0.357694
 C        -1.794722        -0.559943        -0.548486
 C        -0.748633        -1.179337         0.374010
 C        -0.121357         0.180033         0.794933
 O         0.664674         0.296035         1.716858
 C        -1.011250         0.388999        -1.446205
 O        -1.732880         1.121008        -2.427013
 H         0.759956         2.452350        -0.272551
 H        -0.764810         3.314788        -0.728966
 H        -0.287783         3.109048         1.066832
 H        -2.543269         0.550778         1.332481
 H        -2.988927         1.391400        -0.197367
 H        -2.547570        -1.244672        -0.980799
 H        -1.165163        -1.611917         1.278961
 H        -0.014807        -1.838083        -0.068368
 H         0.015024        -0.039339        -1.790066
 H        -1.850342         0.583401        -3.166748
