19
Iteration:   752
 C        -0.222159         2.648071         0.011654
 C        -0.747059         1.207412         0.169486
 C        -2.099664         0.782429         0.810814
 C        -2.054611        -0.507811         0.017529
 C        -0.878959        -1.197916         0.480889
 C         0.204832         0.011802         0.344366
 O         1.397617         0.061167         0.059352
 C        -1.426748         0.419449        -1.087214
 O        -2.224970         1.434448        -1.838166
 H        -0.247646         3.261301         0.967302
 H         0.849245         2.665616        -0.309455
 H        -0.847509         3.103318        -0.840505
 H        -2.275193         0.664672         1.814639
 H        -2.896016         1.423976         0.407953
 H        -2.892608        -1.168959        -0.220670
 H        -1.019316        -1.437919         1.547328
 H        -0.402028        -2.024939        -0.034725
 H        -0.687685         0.035837        -1.793376
 H        -2.122692         1.200454        -2.738241
