19
Iteration:  3952charge 0 multiplicity 1
 C        -0.136235         2.582681         0.076012
 C        -0.801272         1.196932         0.003398
 C        -2.291949         0.758497         0.157602
 C        -1.920837        -0.536116        -0.510994
 C        -0.798637        -1.142871         0.518369
 C        -0.179333         0.158127         0.825641
 O         0.758137         0.357567         1.577305
 C        -1.002550         0.373731        -1.418788
 O        -1.754281         1.112816        -2.389119
 H         0.824581         2.671097        -0.338054
 H        -0.845826         3.252268        -0.408449
 H        -0.077755         2.784819         1.105844
 H        -2.927170         0.946383         1.129549
 H        -2.875800         1.374595        -0.577442
 H        -2.370146        -1.325858        -1.061675
 H        -1.332495        -1.605029         1.328801
 H        -0.068308        -1.850570         0.122642
 H        -0.120809        -0.171439        -1.799899
 H        -1.183252         1.719375        -2.987206
