19
Iteration:  1916
 C        -0.412787         2.646485         0.237578
 C        -0.881337         1.207275         0.028167
 C        -2.266983         0.768077         0.435371
 C        -1.950368        -0.531205        -0.337730
 C        -0.861529        -1.049824         0.567347
 C         0.034101         0.070229         0.579274
 O         1.150031         0.151039         0.975289
 C        -1.112865         0.471555        -1.304790
 O        -1.774195         1.200480        -2.352875
 H        -0.109202         2.922927         1.317262
 H         0.433126         2.958255        -0.325253
 H        -1.062768         3.454728        -0.001014
 H        -2.597196         0.671820         1.394905
 H        -2.977615         1.344737        -0.128670
 H        -2.674336        -1.269881        -0.692342
 H        -1.161802        -1.230968         1.639028
 H        -0.431171        -2.048034         0.273257
 H        -0.179099         0.058746        -1.649535
 H        -2.296953         0.536823        -2.934053
