19
Iteration:  4818charge 0 multiplicity 1
 C        -0.327778         2.649630        -0.141702
 C        -0.711836         1.233032        -0.057213
 C        -2.193661         0.800682         0.385022
 C        -1.943929        -0.536177        -0.402482
 C        -0.809859        -1.238933         0.309063
 C         0.011960         0.208343         0.788873
 O         0.648593         0.238666         1.800021
 C        -1.052225         0.352438        -1.410446
 O        -1.724530         1.120686        -2.457813
 H         0.434301         2.893129         0.613987
 H         0.178747         2.933380        -1.064565
 H        -1.086975         3.441267        -0.076342
 H        -2.468862         0.897499         1.338634
 H        -2.843228         1.382486        -0.121020
 H        -2.855829        -0.979494        -0.726768
 H        -1.034710        -1.940199         1.193143
 H        -0.086542        -1.864502        -0.277569
 H        -0.100004        -0.007956        -1.896103
 H        -1.080450         1.872617        -2.767746
