19
Iteration:   723
 C        -0.216731         2.517159        -0.066942
 C        -0.823930         1.195262        -0.013473
 C        -1.998723         0.811381         0.920545
 C        -2.079183        -0.455225         0.007293
 C        -0.781434        -1.150883         0.321428
 C         0.205301         0.073511         0.331055
 O         1.438043         0.007459         0.374943
 C        -1.465829         0.491987        -1.196044
 O        -2.346993         1.441518        -1.815042
 H        -0.806524         3.291910         0.318676
 H         0.711205         2.480926         0.439789
 H         0.057557         2.822832        -1.119952
 H        -1.637776         0.431124         1.994071
 H        -2.806258         1.580193         0.865243
 H        -2.963370        -1.093867        -0.190575
 H        -0.697719        -1.634772         1.283179
 H        -0.389522        -1.855372        -0.449706
 H        -0.669117         0.029419        -1.872845
 H        -2.805403         0.984266        -2.557463
