19
Iteration:  4989charge 0 multiplicity 1
 C        -0.406486         2.690675         0.095336
 C        -0.842540         1.227898         0.048324
 C        -2.420769         0.774095         0.194251
 C        -1.925522        -0.527915        -0.491590
 C        -1.028082        -1.164523         0.653756
 C        -0.122566         0.129085         0.790798
 O         1.026649         0.225998         1.097634
 C        -0.915976         0.367343        -1.278172
 O        -1.547011         1.113407        -2.246124
 H        -1.207626         3.358837         0.308778
 H         0.277899         2.942632         0.830683
 H         0.019982         3.062735        -0.811213
 H        -2.740603         0.881671         1.325408
 H        -3.002002         1.376060        -0.451257
 H        -2.626586        -1.173719        -1.127708
 H        -1.635013        -1.193771         1.519936
 H        -0.541392        -2.117196         0.472215
 H         0.074546        -0.059809        -1.690979
 H        -0.819458         1.538011        -2.824783
