19
Iteration:  3350charge 0 multiplicity 1
 C        -0.453713         2.733214         0.220816
 C        -0.880425         1.289429         0.079868
 C        -2.344892         0.750490         0.231003
 C        -1.904898        -0.566459        -0.494812
 C        -0.958770        -1.147733         0.494432
 C        -0.121565         0.199378         0.756446
 O         0.935414         0.308447         1.418995
 C        -0.904727         0.312292        -1.426587
 O        -1.472331         0.995591        -2.524590
 H         0.616555         2.766792        -0.027980
 H        -0.960867         3.602894        -0.194640
 H        -0.472856         3.014631         1.351683
 H        -2.584208         0.726645         1.321062
 H        -3.059013         1.344847        -0.457803
 H        -2.716807        -1.322335        -0.860396
 H        -1.496867        -1.421515         1.469084
 H        -0.291857        -1.970336         0.061644
 H        -0.100461        -0.288783        -1.792605
 H        -1.978714         1.842768        -2.194149
