19
Iteration:  4749charge 0 multiplicity 1
 C        -0.217625         2.578661         0.165225
 C        -0.895450         1.236313        -0.014633
 C        -2.448489         0.740304         0.168972
 C        -1.789813        -0.568267        -0.565587
 C        -1.004547        -1.029993         0.646213
 C        -0.158982         0.252869         0.806917
 O         0.948655         0.254904         1.353320
 C        -0.913840         0.415365        -1.326928
 O        -1.661100         1.016970        -2.397183
 H         0.849900         2.422047         0.489619
 H        -0.369626         3.353688        -0.643776
 H        -0.872466         3.065981         1.020369
 H        -3.032123         0.798338         1.006149
 H        -3.031557         1.280198        -0.594085
 H        -2.318298        -1.261581        -1.184972
 H        -1.631207        -1.217342         1.541240
 H        -0.440380        -2.003461         0.528074
 H         0.038179         0.014676        -1.749182
 H        -1.122457         1.702538        -2.943965
