19
Iteration:  3541charge 0 multiplicity 1
 C        -0.364199         2.651197         0.143448
 C        -0.826284         1.202180         0.005737
 C        -2.343764         0.769891         0.160294
 C        -1.914703        -0.538659        -0.499805
 C        -0.886864        -1.064656         0.520422
 C        -0.164329         0.197917         0.790589
 O         0.903517         0.258329         1.449869
 C        -0.971890         0.320389        -1.355715
 O        -1.573698         1.031941        -2.420513
 H         0.593055         2.845185        -0.443176
 H        -1.201148         3.240781        -0.461786
 H        -0.289584         3.110714         1.168323
 H        -2.753070         0.731597         1.200507
 H        -2.890230         1.410932        -0.514482
 H        -2.579142        -1.170269        -0.907591
 H        -1.287967        -1.384792         1.465922
 H        -0.250657        -1.785255         0.059609
 H         0.027499        -0.035971        -1.595398
 H        -1.453852         1.936757        -2.291852
