19
Iteration:  2628
 C        -0.263648         2.642756        -0.057813
 C        -0.728710         1.178181        -0.014073
 C        -2.215755         0.782054         0.237094
 C        -1.892572        -0.629882        -0.472146
 C        -0.781155        -1.157846         0.427766
 C        -0.115737         0.147670         0.747285
 O         0.777352         0.294057         1.548299
 C        -1.065602         0.388633        -1.325554
 O        -1.710118         1.197911        -2.343379
 H        -0.813796         3.148092        -0.841013
 H        -0.529021         3.085970         0.926610
 H         0.820281         2.731718        -0.315731
 H        -2.522616         0.812108         1.198673
 H        -2.956459         1.358671        -0.204156
 H        -2.852784        -1.222590        -0.713105
 H        -1.134044        -1.579962         1.392472
 H        -0.003396        -1.827416        -0.002487
 H        -0.313674        -0.123841        -1.967351
 H        -2.483421         1.539944        -1.930377
