19
Iteration:  1264
 C        -0.221450         2.540695         0.036455
 C        -0.856041         1.232027         0.008123
 C        -2.138052         0.801599         0.680117
 C        -1.941998        -0.443015        -0.338664
 C        -0.718301        -1.194698         0.318346
 C         0.150438         0.044730         0.546313
 O         1.289849         0.175786         0.950431
 C        -1.338722         0.499281        -1.313700
 O        -2.276681         1.191767        -2.115277
 H        -0.590818         3.366749         0.700426
 H         0.845651         2.315994         0.230930
 H        -0.343351         3.015583        -0.939975
 H        -2.123538         0.657109         1.810951
 H        -2.976934         1.477653         0.464956
 H        -2.775072        -1.036567        -0.682978
 H        -0.840464        -1.635835         1.354419
 H        -0.321069        -2.135052        -0.350028
 H        -0.436800         0.199401        -1.920364
 H        -2.357025         2.134746        -1.955442
