19
Iteration:  3472charge 0 multiplicity 1
 C        -0.217937         2.585113        -0.046429
 C        -0.818488         1.253668        -0.137835
 C        -2.299092         0.689239         0.220111
 C        -1.851140        -0.518288        -0.485316
 C        -0.710418        -1.134447         0.367883
 C        -0.054986         0.141016         0.824191
 O         0.626910         0.327044         1.771904
 C        -0.962766         0.407119        -1.425913
 O        -1.710674         1.177539        -2.335122
 H         0.881208         2.689824        -0.146286
 H        -0.684837         3.324562        -0.756266
 H        -0.453316         2.968242         0.945270
 H        -2.332444         0.752794         1.341728
 H        -3.143971         1.241673        -0.261813
 H        -2.597020        -1.183154        -0.920118
 H        -1.128447        -1.711450         1.219008
 H        -0.062967        -1.814284        -0.251622
 H        -0.172845        -0.073869        -1.944400
 H        -2.465208         0.671904        -2.670922
