19
Iteration:  2296
 C        -0.165840         2.595844        -0.222719
 C        -0.720781         1.212897        -0.033228
 C        -2.219256         0.811370         0.417139
 C        -1.872450        -0.553557        -0.525390
 C        -0.638589        -1.160865         0.268521
 C        -0.043091         0.170390         0.778864
 O         0.796680         0.227675         1.661002
 C        -1.133844         0.342160        -1.399915
 O        -2.067586         1.189021        -2.140168
 H        -0.849502         3.478214        -0.088027
 H         0.581183         2.744932         0.560309
 H         0.335421         2.687659        -1.231381
 H        -2.415011         0.677501         1.448113
 H        -2.941669         1.493438        -0.095177
 H        -2.837748        -1.084618        -0.771803
 H        -0.701108        -1.937131         1.018759
 H         0.029412        -1.584838        -0.483425
 H        -0.321082         0.025116        -2.011483
 H        -1.510730         1.822775        -2.727251
