19
Iteration:  1006
 C        -0.117345         2.550993         0.064317
 C        -0.747745         1.226366         0.056494
 C        -2.154919         0.840693         0.749943
 C        -2.008057        -0.477582        -0.142109
 C        -0.778317        -1.145611         0.488960
 C         0.141713         0.038990         0.384184
 O         1.348446         0.116591         0.511426
 C        -1.349156         0.497256        -1.258077
 O        -2.339119         1.198254        -2.018561
 H         0.000450         2.903757         1.027685
 H         0.815447         2.478921        -0.489976
 H        -0.752839         3.305789        -0.480471
 H        -2.159667         0.685041         1.808823
 H        -2.865939         1.582122         0.484830
 H        -2.944524        -0.998685        -0.395642
 H        -0.942727        -1.650028         1.459131
 H        -0.431537        -2.023346        -0.235837
 H        -0.638009         0.177045        -2.012612
 H        -2.538513         2.134218        -1.866298
