19
Iteration:    62charge 0 multiplicity 1
 C         0.013982         2.562256        -0.195458
 C        -0.625245         1.187476        -0.214766
 C        -1.671498         0.601643         1.016749
 C        -1.962368        -0.480122        -0.055848
 C        -0.618910        -1.191238        -0.252608
 C         0.288121        -0.003865        -0.011049
 O         1.405248        -0.007043         0.516143
 C        -1.744045         0.686185        -1.091443
 O        -2.978175         1.471235        -1.093801
 H         0.819122         2.556543        -0.961251
 H        -0.709444         3.457208        -0.440176
 H         0.383085         2.631404         0.838569
 H        -1.276155         0.358010         2.025247
 H        -2.450351         1.364071         1.154527
 H        -2.932682        -1.001918         0.066023
 H        -0.515924        -2.111509         0.481835
 H        -0.468312        -1.736014        -1.206522
 H        -1.604473         0.419220        -2.189302
 H        -2.728511         2.298241        -1.541971
