19
Iteration:  2736charge 0 multiplicity 1
 C        -0.413982         2.756975         0.270178
 C        -0.875362         1.343018         0.193777
 C        -2.329912         0.767606         0.292933
 C        -1.912618        -0.539209        -0.548674
 C        -0.987908        -1.099165         0.628882
 C        -0.131009         0.158637         0.860849
 O         1.056542         0.208011         1.178270
 C        -0.990410         0.240815        -1.513954
 O        -1.506853         1.035046        -2.540660
 H        -1.174280         3.421099         0.601970
 H         0.536920         3.058014         0.741074
 H        -0.237463         3.070303        -0.749649
 H        -2.596087         0.514508         1.399583
 H        -3.118683         1.477429        -0.221745
 H        -2.764150        -1.148499        -1.017857
 H        -1.557741        -1.314358         1.598961
 H        -0.330060        -1.968287         0.426185
 H         0.050323         0.039783        -1.638749
 H        -2.368132         1.421679        -2.234460
