19
Iteration:  2230charge 0 multiplicity 1
 C        -0.243704         2.565352         0.136018
 C        -0.821844         1.209511        -0.097165
 C        -2.191036         0.778041         0.456237
 C        -1.949803        -0.455503        -0.354972
 C        -0.826618        -1.131695         0.418486
 C        -0.008611         0.161823         0.648329
 O         1.008502         0.257040         1.309277
 C        -1.081996         0.404968        -1.392781
 O        -1.960686         1.084557        -2.372394
 H        -0.380738         3.247607        -0.711995
 H        -0.892302         2.976273         0.914380
 H         0.820118         2.467661         0.467645
 H        -2.450923         0.632534         1.509480
 H        -3.011873         1.347315        -0.071408
 H        -2.776313        -1.122377        -0.720609
 H        -1.108396        -1.499835         1.404901
 H        -0.191091        -1.852954        -0.044999
 H        -0.190565         0.015210        -1.827841
 H        -1.578484         1.942177        -2.357670
