19
Iteration:   891charge 0 multiplicity 1
 C        -0.131532         2.483281        -0.440577
 C        -0.664157         1.079785        -0.107127
 C        -1.933852         0.766716         0.776131
 C        -1.975293        -0.479208        -0.177589
 C        -0.602374        -1.201280         0.177547
 C         0.219265         0.012859         0.394363
 O         1.216028         0.104161         1.075506
 C        -1.479143         0.578172        -1.311071
 O        -2.582009         1.498064        -1.611471
 H        -0.351589         2.753105        -1.518269
 H        -0.546057         3.234437         0.238565
 H         0.890874         2.506108        -0.232709
 H        -1.688023         0.564182         1.885973
 H        -2.830943         1.473131         0.708276
 H        -2.816974        -1.097390        -0.472716
 H        -0.675341        -1.900358         1.024328
 H        -0.276993        -1.754264        -0.649180
 H        -0.921312         0.279551        -2.229640
 H        -2.607475         1.439600        -2.572908
