19
Iteration:     7
 C        -0.094094         2.542995         0.035602
 C        -0.700412         1.201409         0.008880
 C        -1.711941         0.624366         1.073222
 C        -2.024479        -0.499556        -0.005159
 C        -0.636526        -1.204757        -0.018598
 C         0.262365        -0.038766        -0.012526
 O         1.512410        -0.011552         0.028343
 C        -1.718441         0.678057        -1.036247
 O        -2.771428         1.536740        -1.372176
 H         0.393363         2.753764         0.996755
 H         0.528527         2.798484        -0.884685
 H        -0.879673         3.329160         0.023800
 H        -1.343292         0.194133         2.017458
 H        -2.504893         1.376781         1.201732
 H        -3.019517        -0.953064        -0.204759
 H        -0.447231        -1.903732         0.892351
 H        -0.675955        -1.710031        -1.003026
 H        -1.402949         0.437154        -2.075504
 H        -3.497497         1.642524        -0.699224
