19
Iteration:  1647charge 0 multiplicity 1
 C        -0.377120         2.552049         0.178328
 C        -0.873834         1.229337         0.128514
 C        -2.285942         0.808291         0.568617
 C        -1.980337        -0.464419        -0.270916
 C        -0.861911        -1.118854         0.456106
 C         0.042932         0.088182         0.580791
 O         1.223176         0.174472         0.782944
 C        -1.160756         0.440918        -1.294954
 O        -1.842822         1.128599        -2.288153
 H         0.363805         2.778772         0.958712
 H         0.097091         2.874617        -0.758632
 H        -1.153150         3.421346         0.423922
 H        -2.341259         0.652294         1.671052
 H        -3.131668         1.454586         0.256319
 H        -2.820465        -1.127523        -0.534836
 H        -1.169323        -1.495795         1.411311
 H        -0.355475        -1.856816        -0.103728
 H        -0.328746        -0.018551        -1.838093
 H        -1.750949         2.046383        -2.250030
