19
Iteration:   225charge 0 multiplicity 1
 C        -0.017491         2.561147         0.160798
 C        -0.716142         1.199260         0.200051
 C        -1.909018         0.697509         1.083812
 C        -1.988209        -0.486010         0.017173
 C        -0.743520        -1.220212         0.277112
 C         0.200814         0.047663         0.124830
 O         1.304722         0.105935        -0.277441
 C        -1.576047         0.529630        -1.100026
 O        -2.470888         1.397903        -1.687893
 H         1.015925         2.624224         0.514299
 H        -0.178678         3.120856        -0.852001
 H        -0.524587         3.254162         0.814200
 H        -1.879887         0.602821         2.240133
 H        -2.871195         1.268176         0.934056
 H        -2.916911        -1.087770         0.038032
 H        -0.664776        -1.567242         1.348718
 H        -0.661862        -2.073041        -0.362332
 H        -0.971757         0.089031        -1.952140
 H        -3.166818         1.772115        -1.155371
