19
Iteration:   600charge 0 multiplicity 1
 C        -0.063013         2.551236        -0.326156
 C        -0.692934         1.195302        -0.107713
 C        -1.817516         0.646017         0.894673
 C        -2.012689        -0.511334        -0.106348
 C        -0.672274        -1.228378         0.037767
 C         0.228233         0.026626         0.285813
 O         1.333928         0.109646         0.771614
 C        -1.704331         0.485374        -1.160026
 O        -2.554464         1.583244        -1.520103
 H         0.947445         2.397284         0.046678
 H        -0.003303         2.841166        -1.350485
 H        -0.450977         3.385275         0.236402
 H        -1.558531         0.280860         2.001783
 H        -2.667248         1.377352         0.846930
 H        -2.896192        -1.132662        -0.050982
 H        -0.743896        -1.970677         0.797751
 H        -0.466285        -1.735589        -0.949131
 H        -1.278657         0.143846        -2.128616
 H        -3.019704         1.371538        -2.353791
