19
Iteration:  3482
 C        -0.251221         2.644499         0.034009
 C        -0.870099         1.219516        -0.117025
 C        -2.247404         0.783139         0.298580
 C        -1.770186        -0.489020        -0.516965
 C        -0.709279        -1.173668         0.366321
 C        -0.131837         0.178331         0.783984
 O         0.664468         0.296274         1.755876
 C        -1.020907         0.363718        -1.452485
 O        -1.710938         1.144693        -2.377176
 H         0.790472         2.523227        -0.280383
 H        -0.701673         3.247204        -0.733827
 H        -0.304915         3.157528         0.981621
 H        -2.493471         0.635810         1.410484
 H        -3.025964         1.478367        -0.148068
 H        -2.553494        -1.245762        -0.966782
 H        -1.190175        -1.657806         1.268955
 H        -0.039032        -1.976568        -0.094790
 H        -0.117416        -0.001978        -1.848248
 H        -2.090125         0.487530        -3.062471
