19
Iteration:  2502
 C        -0.344935         2.643232         0.052414
 C        -0.876177         1.266862        -0.098559
 C        -2.372778         0.719929         0.402406
 C        -1.913586        -0.523307        -0.443737
 C        -0.876951        -1.071719         0.515371
 C        -0.046534         0.176056         0.702597
 O         0.992108         0.175157         1.349528
 C        -1.001155         0.414848        -1.330511
 O        -1.657813         1.110680        -2.393071
 H         0.732058         2.473645        -0.053833
 H        -0.715849         3.348386        -0.662758
 H        -0.694112         2.999847         1.033840
 H        -2.488907         0.459205         1.529824
 H        -3.258420         1.206869        -0.147965
 H        -2.480428        -1.175342        -1.051435
 H        -1.390790        -1.448040         1.409016
 H        -0.060131        -1.728563         0.057529
 H        -0.026323         0.094374        -1.729144
 H        -2.248895         1.695328        -1.965049
