19
Iteration:    73charge 0 multiplicity 1
 C         0.004359         2.509957        -0.240182
 C        -0.662830         1.170099        -0.120337
 C        -1.635531         0.602976         1.011224
 C        -1.910421        -0.426690        -0.067827
 C        -0.630167        -1.226705        -0.252989
 C         0.295567        -0.015290         0.026512
 O         1.378430         0.025547         0.521016
 C        -1.855668         0.639739        -1.147501
 O        -2.924086         1.519598        -1.127885
 H         0.595908         2.700453        -1.160930
 H        -0.827107         3.348705        -0.071485
 H         0.778073         2.687060         0.552220
 H        -1.213311         0.255600         1.970895
 H        -2.568800         1.169919         1.067964
 H        -2.782694        -1.102058        -0.119153
 H        -0.316658        -1.891936         0.679580
 H        -0.564007        -1.635444        -1.275182
 H        -1.425519         0.277054        -2.138524
 H        -2.701958         2.430813        -0.973484
