19
Iteration:   282charge 0 multiplicity 1
 C        -0.256159         2.693347        -0.060981
 C        -0.661198         1.206956        -0.030608
 C        -1.753346         0.721724         0.993899
 C        -2.078981        -0.439526        -0.013968
 C        -0.708311        -1.295271         0.190334
 C         0.291853        -0.025327         0.080025
 O         1.473958        -0.110154         0.195694
 C        -1.642496         0.580389        -1.121661
 O        -2.614172         1.525847        -1.443347
 H        -0.285908         3.075765        -1.106207
 H        -1.124713         3.276682         0.498252
 H         0.647056         2.921879         0.510402
 H        -1.355014         0.388343         1.994664
 H        -2.539871         1.483434         0.914114
 H        -3.034587        -0.894169        -0.012062
 H        -0.359278        -1.890455         1.128326
 H        -0.398517        -1.992773        -0.591344
 H        -1.163794         0.237640        -2.103866
 H        -2.914547         1.446007        -2.397162
