19
Iteration:  4773charge 0 multiplicity 1
 C        -0.237983         2.652536         0.084783
 C        -0.871006         1.193025         0.022457
 C        -2.285796         0.768630         0.152850
 C        -1.905881        -0.499074        -0.534094
 C        -0.965869        -1.163136         0.508562
 C        -0.145427         0.141815         0.848702
 O         0.901693         0.326341         1.524666
 C        -0.925849         0.419335        -1.359282
 O        -1.708763         1.025153        -2.405908
 H         0.736057         2.631760         0.586977
 H        -0.124245         3.089878        -0.918927
 H        -0.937101         3.452427         0.509999
 H        -2.621147         0.673501         1.092041
 H        -2.993667         1.359829        -0.262381
 H        -2.552013        -1.065302        -1.089850
 H        -1.386211        -1.499164         1.525920
 H        -0.419732        -2.092366         0.169169
 H         0.044492         0.036792        -1.805741
 H        -1.258041         1.639897        -3.057790
