19
Iteration:  4595charge 0 multiplicity 1
 C        -0.104670         2.534367         0.043905
 C        -0.768242         1.214030        -0.110089
 C        -2.295160         0.739529         0.215273
 C        -1.820287        -0.551782        -0.535748
 C        -0.773595        -1.149973         0.524407
 C        -0.078144         0.143229         0.837596
 O         0.692141         0.366761         1.727558
 C        -1.049442         0.432058        -1.516668
 O        -1.860854         1.119415        -2.395222
 H         1.031946         2.424976         0.049737
 H        -0.329889         3.220378        -0.832346
 H        -0.499677         3.249303         0.852310
 H        -2.525461         0.694665         1.352881
 H        -3.116821         1.351275        -0.352140
 H        -2.579188        -1.256108        -1.001504
 H        -1.539685        -1.368605         1.325416
 H        -0.130606        -2.080397         0.257138
 H        -0.163472         0.113925        -2.182938
 H        -1.259912         1.547345        -2.947969
