19
Iteration:   540
 C        -0.162726         2.775234         0.082381
 C        -0.691429         1.238295         0.047172
 C        -2.024758         0.749365         0.949337
 C        -2.033794        -0.456281        -0.092763
 C        -0.761922        -1.149616         0.418904
 C         0.215681        -0.014042         0.233870
 O         1.445964        -0.108673         0.127540
 C        -1.500238         0.511450        -1.218581
 O        -2.450539         1.390617        -1.725986
 H        -0.731643         3.180007         0.953403
 H         0.952522         2.886293         0.271720
 H        -0.525780         3.346095        -0.858889
 H        -1.790944         0.353236         1.862764
 H        -2.749384         1.548972         0.987255
 H        -2.921962        -1.129580        -0.272843
 H        -0.805510        -1.662185         1.425104
 H        -0.496588        -1.868630        -0.344513
 H        -0.738674         0.149144        -2.012247
 H        -3.080307         0.844458        -2.175546
