19
Iteration:  4917
 C        -0.273843         2.662440         0.151993
 C        -0.774795         1.273232        -0.028232
 C        -2.273177         0.792719         0.383521
 C        -1.957971        -0.485182        -0.532547
 C        -0.882569        -1.145292         0.385211
 C        -0.070711         0.170845         0.762757
 O         0.838772         0.291672         1.462580
 C        -0.996907         0.379072        -1.348659
 O        -1.719488         0.978866        -2.429711
 H        -1.087365         3.289394         0.620964
 H         0.706474         2.842349         0.704962
 H        -0.133631         3.138220        -0.892072
 H        -2.550694         0.512491         1.371904
 H        -3.007591         1.469066         0.001858
 H        -2.739017        -1.158676        -0.919853
 H        -1.350163        -1.563773         1.352838
 H        -0.231021        -1.979157         0.001522
 H        -0.152138        -0.240338        -1.776410
 H        -1.082482         1.597609        -2.949543
