19
Iteration:  4355
 C        -0.207616         2.566045        -0.023314
 C        -0.799751         1.191054        -0.018369
 C        -2.397310         0.742442         0.196658
 C        -1.864991        -0.528567        -0.587050
 C        -0.932724        -1.123812         0.486872
 C        -0.182242         0.190665         0.813213
 O         0.834638         0.333745         1.539487
 C        -0.924246         0.374207        -1.345978
 O        -1.686367         1.095160        -2.279439
 H         0.697809         2.727652        -0.562356
 H        -0.950472         3.287468        -0.388226
 H        -0.063884         2.975128         1.075433
 H        -2.720387         0.767697         1.354264
 H        -3.087620         1.396073        -0.323299
 H        -2.548045        -1.061224        -1.232401
 H        -1.297305        -1.437868         1.497684
 H        -0.137894        -1.902963         0.167329
 H        -0.036528        -0.061594        -1.948926
 H        -1.003146         1.512773        -2.726420
