19
Iteration:  2311
 C        -0.117286         2.698701        -0.226907
 C        -0.729338         1.225236        -0.134390
 C        -2.181638         0.610112         0.389298
 C        -1.943735        -0.549957        -0.364777
 C        -0.735966        -1.155678         0.228613
 C        -0.026414         0.138196         0.791089
 O         0.803040         0.247018         1.688338
 C        -1.164245         0.431118        -1.420443
 O        -1.986398         1.234520        -2.148870
 H        -0.870298         3.457287        -0.000922
 H         0.804013         2.946552         0.340434
 H         0.121248         2.965301        -1.243058
 H        -2.227423         0.446524         1.643051
 H        -3.025390         1.181394        -0.002437
 H        -2.544595        -1.332044        -0.807564
 H        -1.059931        -1.826713         1.020527
 H        -0.009085        -1.639785        -0.396508
 H        -0.432298        -0.168730        -2.004050
 H        -1.528318         1.508396        -2.978926
