19
Iteration:  4497
 C        -0.269060         2.632589        -0.010827
 C        -0.770856         1.212374        -0.037065
 C        -2.238526         0.745167         0.190664
 C        -1.863274        -0.553211        -0.563597
 C        -1.029837        -1.233423         0.499940
 C        -0.115247         0.159641         0.873333
 O         0.840893         0.332684         1.531858
 C        -0.967243         0.421612        -1.380481
 O        -1.687617         1.138506        -2.302714
 H         0.720503         2.724882         0.376212
 H        -0.237894         3.001133        -1.023085
 H        -0.956784         3.385549         0.355231
 H        -2.548940         0.661360         1.347075
 H        -3.112300         1.403871        -0.201335
 H        -2.725524        -1.175670        -0.873904
 H        -1.557191        -1.538390         1.436795
 H        -0.183084        -1.965808         0.275662
 H        -0.092691         0.000815        -1.853590
 H        -1.186454         1.359346        -3.030463
