19
Iteration:  4019
 C        -0.250304         2.711833        -0.152867
 C        -0.737174         1.210702        -0.172073
 C        -2.190212         0.792540         0.321394
 C        -1.838504        -0.492305        -0.448825
 C        -0.776343        -1.194271         0.308965
 C        -0.027292         0.089033         0.861016
 O         0.601745         0.219807         1.880550
 C        -1.035084         0.446240        -1.453013
 O        -1.795194         1.077190        -2.380068
 H         0.764483         2.751528         0.214642
 H        -0.192213         3.083010        -1.216812
 H        -0.794171         3.294488         0.475795
 H        -2.409504         0.861656         1.480270
 H        -2.891613         1.541616        -0.279530
 H        -2.681148        -0.969835        -0.804254
 H        -1.014657        -1.673531         1.229619
 H        -0.275586        -1.938457        -0.286313
 H        -0.308363        -0.256040        -1.949753
 H        -1.329951         1.794451        -2.699481
