19
Iteration:   538charge 0 multiplicity 1
 C        -0.152857         2.770472         0.095227
 C        -0.716456         1.222552         0.068649
 C        -2.024527         0.759712         0.941127
 C        -2.022027        -0.455491        -0.089078
 C        -0.771683        -1.154395         0.435722
 C         0.216717        -0.004965         0.225512
 O         1.446886        -0.106041         0.105433
 C        -1.490201         0.516054        -1.204362
 O        -2.448180         1.395342        -1.739339
 H        -0.764725         3.186692         0.913978
 H         0.896273         2.860132         0.341490
 H        -0.482009         3.391306        -0.901700
 H        -1.790454         0.295228         1.874576
 H        -2.738037         1.587810         0.920031
 H        -2.892891        -1.152073        -0.251289
 H        -0.813331        -1.607777         1.424655
 H        -0.459404        -1.904349        -0.389694
 H        -0.779167         0.091451        -1.970759
 H        -3.094584         0.788187        -2.187527
