19
Iteration:  2589
 C        -0.180162         2.645644        -0.091832
 C        -0.719584         1.251035        -0.006721
 C        -2.219840         0.707962         0.383500
 C        -1.934227        -0.473493        -0.492390
 C        -0.747791        -1.182530         0.289038
 C         0.013726         0.111824         0.796112
 O         0.761394         0.280090         1.750260
 C        -1.121498         0.466957        -1.385329
 O        -1.840214         1.094452        -2.476616
 H        -0.113592         2.931393        -1.161691
 H        -0.743442         3.439253         0.370261
 H         0.872060         2.778116         0.238836
 H        -2.547488         0.387608         1.514160
 H        -2.935925         1.511960        -0.056725
 H        -2.633316        -1.169158        -0.862473
 H        -1.137895        -1.645571         1.196519
 H        -0.138599        -2.007982        -0.128500
 H        -0.127415         0.178297        -1.739069
 H        -2.797701         1.287492        -2.320679
