19
Iteration:  2990
 C        -0.508467         2.643493         0.096612
 C        -0.807189         1.200292         0.051902
 C        -2.311067         0.766690         0.336857
 C        -1.860246        -0.489869        -0.554707
 C        -1.013688        -1.003634         0.586215
 C        -0.160572         0.172754         0.802991
 O         0.951636         0.204353         1.345739
 C        -0.879465         0.388733        -1.367346
 O        -1.463576         1.022447        -2.506094
 H         0.496020         2.874312         0.410513
 H        -0.599334         3.068386        -0.875458
 H        -1.223843         3.137086         0.815797
 H        -2.573224         0.748451         1.444553
 H        -3.295788         1.241866        -0.093529
 H        -2.575063        -1.269341        -1.046518
 H        -1.555368        -1.388728         1.467904
 H        -0.295761        -1.758917         0.308757
 H        -0.069910        -0.086458        -1.828971
 H        -2.086507         1.669853        -2.146561
