19
Iteration:  3597
 C        -0.429758         2.652328         0.063719
 C        -0.967631         1.235177         0.062656
 C        -2.439455         0.706501         0.290475
 C        -1.910045        -0.473144        -0.516086
 C        -0.989769        -1.062327         0.582987
 C        -0.157584         0.180031         0.802811
 O         1.024417         0.222780         1.257224
 C        -0.934329         0.309414        -1.300586
 O        -1.328822         1.107587        -2.416338
 H         0.658600         2.907006         0.007684
 H        -0.954657         3.335172        -0.695857
 H        -0.810809         3.042221         1.095308
 H        -2.881276         0.813992         1.266217
 H        -3.067315         1.383216        -0.341493
 H        -2.589445        -1.087488        -1.049834
 H        -1.433261        -1.404244         1.517840
 H        -0.380368        -1.841417         0.176427
 H         0.100926         0.045288        -1.488342
 H        -2.285071         0.953608        -2.449748
