19
Iteration:    47
 C         0.018144         2.592976        -0.113493
 C        -0.618616         1.205320        -0.124174
 C        -1.607394         0.679687         0.970409
 C        -1.987658        -0.448845        -0.100917
 C        -0.651587        -1.247923        -0.178470
 C         0.277609        -0.022648         0.004895
 O         1.451620        -0.044116         0.437418
 C        -1.803181         0.678504        -1.098192
 O        -2.992955         1.461477        -1.102351
 H         1.112421         2.526690        -0.367769
 H        -0.479501         3.224723        -0.792010
 H        -0.058428         3.101859         0.902500
 H        -1.069041         0.311263         1.891445
 H        -2.408821         1.422267         1.198993
 H        -2.927993        -1.019919        -0.229645
 H        -0.381846        -2.008161         0.442264
 H        -0.491561        -1.538146        -1.269870
 H        -1.394304         0.452631        -2.108432
 H        -3.257822         1.614862        -2.015112
