19
Iteration:  1403
 C        -0.231220         2.623996         0.043199
 C        -0.777761         1.149152         0.064082
 C        -2.168079         0.730887         0.632588
 C        -2.000842        -0.485155        -0.279191
 C        -0.747816        -1.191570         0.291951
 C         0.133091         0.060534         0.490883
 O         1.237266         0.207310         0.974250
 C        -1.345664         0.440255        -1.280408
 O        -2.145721         1.274306        -2.126685
 H         0.934674         2.702876         0.087662
 H        -0.518651         3.001994        -0.964638
 H        -0.663206         3.143739         0.861757
 H        -2.309007         0.481137         1.710401
 H        -3.003299         1.342303         0.218873
 H        -2.853259        -1.101648        -0.494688
 H        -0.907745        -1.610245         1.266940
 H        -0.398003        -1.891695        -0.455553
 H        -0.549514         0.031041        -2.011277
 H        -2.011781         2.267145        -2.014747
