19
Iteration:  4480
 C        -0.277280         2.601091         0.017628
 C        -0.856066         1.195758         0.023990
 C        -2.401977         0.766248         0.174553
 C        -1.890464        -0.513519        -0.488977
 C        -0.898186        -1.114960         0.577324
 C        -0.120158         0.141676         0.784826
 O         0.852008         0.289971         1.408489
 C        -0.881938         0.369272        -1.298611
 O        -1.658400         1.129920        -2.309330
 H         0.794858         2.505753         0.433060
 H        -0.207875         3.145067        -0.979120
 H        -0.909532         3.272707         0.685068
 H        -2.885750         0.803413         1.079521
 H        -2.988440         1.377731        -0.527331
 H        -2.455614        -1.161679        -1.174344
 H        -1.483656        -1.362986         1.468643
 H        -0.461219        -1.930682         0.068523
 H         0.131438         0.055026        -1.689379
 H        -1.196496         1.242303        -3.099577
