19
Iteration:   633
 C         0.034110         2.491181        -0.409634
 C        -0.646465         1.154444        -0.197796
 C        -1.805770         0.675610         0.881999
 C        -1.889120        -0.397039        -0.155534
 C        -0.611055        -1.309211        -0.030016
 C         0.224772         0.012375         0.261607
 O         1.201483         0.149854         0.988640
 C        -1.643955         0.621964        -1.195714
 O        -2.736832         1.518987        -1.450368
 H         0.901566         2.212425        -1.011862
 H        -0.474730         3.274344        -0.903732
 H         0.521805         2.754259         0.539682
 H        -1.582498         0.306998         2.004738
 H        -2.743478         1.299371         0.778007
 H        -2.782026        -1.015033        -0.209602
 H        -0.687878        -1.986034         0.766483
 H        -0.452777        -1.844148        -1.003412
 H        -1.104317         0.320950        -2.150611
 H        -3.467035         1.010306        -1.938329
