19
Iteration:  3546charge 0 multiplicity 1
 C        -0.390189         2.648019         0.131942
 C        -0.796123         1.228917        -0.037456
 C        -2.358908         0.764566         0.145772
 C        -1.901352        -0.528573        -0.469043
 C        -0.910468        -1.079965         0.544662
 C        -0.129676         0.192791         0.820797
 O         0.902608         0.256304         1.411158
 C        -0.982113         0.359330        -1.322898
 O        -1.543905         1.031093        -2.411912
 H         0.534048         2.807868        -0.382433
 H        -1.068049         3.232829        -0.389549
 H        -0.276878         3.074368         1.130933
 H        -2.922631         0.594613         1.064598
 H        -3.022013         1.352774        -0.534580
 H        -2.696847        -1.281350        -0.951186
 H        -1.353244        -1.497238         1.489467
 H        -0.240286        -1.864864         0.086972
 H         0.026866        -0.081588        -1.664089
 H        -1.562719         2.049876        -2.273696
