19
Iteration:  2035
 C        -0.177968         2.619536        -0.158762
 C        -0.634868         1.182745        -0.121311
 C        -2.045045         0.767864         0.424120
 C        -1.918480        -0.583239        -0.412765
 C        -0.724212        -1.317697         0.165019
 C         0.036350         0.078096         0.679416
 O         0.757527         0.367824         1.632641
 C        -1.157304         0.394160        -1.444832
 O        -2.081572         1.323390        -2.008807
 H         0.914738         2.884436        -0.016716
 H        -0.517129         3.021012        -1.077986
 H        -0.697967         3.208010         0.579212
 H        -2.146637         0.731717         1.554325
 H        -2.827164         1.446100        -0.004447
 H        -2.844287        -1.047987        -0.784278
 H        -0.827813        -2.027797         0.989539
 H        -0.152941        -1.821329        -0.604818
 H        -0.312051         0.027549        -2.118319
 H        -2.429532         0.841866        -2.717014
