19
Iteration:  4175
 C        -0.441813         2.730751         0.087997
 C        -0.850471         1.254689         0.115986
 C        -2.360952         0.741784         0.267726
 C        -1.970300        -0.486373        -0.442399
 C        -1.015615        -1.076524         0.573280
 C        -0.164637         0.218222         0.872585
 O         0.970182         0.151994         1.277668
 C        -0.942334         0.353469        -1.379319
 O        -1.440538         1.019265        -2.476944
 H         0.497070         2.801968        -0.499965
 H        -1.152632         3.458395        -0.232070
 H        -0.247040         3.042733         1.026225
 H        -2.830484         0.501752         1.327479
 H        -3.127988         1.322137        -0.440640
 H        -2.708882        -1.125639        -1.082666
 H        -1.399099        -1.375606         1.571279
 H        -0.365851        -1.815056         0.127675
 H         0.117012        -0.035717        -1.471955
 H        -0.773014         1.657285        -2.958982
