19
Iteration:  3380charge 0 multiplicity 1
 C        -0.432358         2.602244         0.069862
 C        -0.840163         1.189298        -0.007721
 C        -2.355872         0.818303         0.257506
 C        -1.926574        -0.485610        -0.491970
 C        -0.831635        -1.171045         0.413545
 C        -0.036121         0.162693         0.832010
 O         0.826683         0.328224         1.604808
 C        -0.920361         0.450419        -1.376190
 O        -1.578883         0.984100        -2.512248
 H         0.612335         2.743146        -0.011260
 H        -0.857860         3.377468        -0.463239
 H        -0.537390         2.807461         1.125024
 H        -2.551509         0.929669         1.343354
 H        -3.048492         1.585300        -0.248498
 H        -2.659286        -1.287822        -0.999853
 H        -1.075723        -1.910719         1.237147
 H        -0.120803        -1.751931        -0.305750
 H        -0.183910        -0.133319        -1.874382
 H        -1.897126         1.856192        -2.316322
