19
Iteration:  1202charge 0 multiplicity 1
 C        -0.163748         2.555853        -0.347501
 C        -0.673677         1.116939        -0.148892
 C        -1.905306         0.768954         0.691978
 C        -1.897901        -0.486405        -0.233588
 C        -0.578026        -1.276830         0.083177
 C         0.197722        -0.022191         0.517087
 O         0.995150         0.178447         1.392773
 C        -1.428077         0.557144        -1.354100
 O        -2.441158         1.455315        -1.825575
 H        -0.997171         3.117644        -0.711054
 H         0.289578         3.064547         0.499507
 H         0.629282         2.511960        -1.170314
 H        -1.774136         0.543241         1.747363
 H        -2.740614         1.417753         0.455816
 H        -2.887587        -1.072142        -0.373734
 H        -0.567426        -1.969357         0.865979
 H        -0.222517        -1.647321        -0.770057
 H        -0.820172         0.310189        -2.192243
 H        -2.869759         1.041055        -2.573576
