19
Iteration:  4244charge 0 multiplicity 1
 C        -0.173705         2.618661        -0.009989
 C        -0.764919         1.198155        -0.098623
 C        -2.308139         0.740407         0.261534
 C        -1.880017        -0.517622        -0.522723
 C        -0.844551        -1.162688         0.460668
 C        -0.098151         0.218163         0.820147
 O         0.738977         0.272376         1.716540
 C        -0.943373         0.398992        -1.447082
 O        -1.823495         1.094470        -2.416987
 H         0.906826         2.481098        -0.130702
 H        -0.592292         3.292015        -0.773360
 H        -0.472362         3.087494         0.950443
 H        -2.515482         0.626930         1.351427
 H        -2.822455         1.533777        -0.134083
 H        -2.789397        -0.984418        -0.929747
 H        -1.431074        -1.454806         1.350545
 H        -0.137306        -1.979611         0.106607
 H        -0.064776        -0.076129        -2.018672
 H        -1.061465         1.684379        -2.794143
