19
Iteration:  1295
 C        -0.210329         2.695942         0.298147
 C        -0.800197         1.301557         0.058406
 C        -2.247866         0.789008         0.613443
 C        -1.995105        -0.487518        -0.273849
 C        -0.790374        -1.159433         0.445189
 C         0.092489         0.112426         0.537620
 O         1.302007         0.158996         0.613124
 C        -1.307949         0.391450        -1.317586
 O        -2.148240         1.161839        -2.100108
 H        -0.254495         2.969070         1.424211
 H         0.870017         2.726105         0.060173
 H        -0.631853         3.449478        -0.298743
 H        -2.362447         0.633290         1.708445
 H        -3.031578         1.345738         0.103430
 H        -2.792325        -1.105607        -0.589710
 H        -1.070967        -1.594617         1.467906
 H        -0.459297        -2.087434        -0.251923
 H        -0.534259        -0.183165        -1.984899
 H        -1.557910         1.008397        -2.869504
