19
Iteration:   973
 C         0.074377         2.642107        -0.065748
 C        -0.655051         1.195871        -0.134930
 C        -2.038363         0.767416         0.797494
 C        -2.037196        -0.439718        -0.110600
 C        -0.715784        -1.185617         0.256833
 C         0.188396         0.065622         0.393201
 O         1.292165         0.127888         0.900417
 C        -1.527602         0.518370        -1.291803
 O        -2.517298         1.215351        -2.003721
 H        -0.392815         3.223572         0.667090
 H         1.087867         2.602782         0.313553
 H        -0.107041         3.178581        -1.022734
 H        -1.964255         0.453831         1.802527
 H        -2.829224         1.436364         0.613692
 H        -2.912155        -1.084518        -0.352399
 H        -0.805367        -1.982347         1.021064
 H        -0.376392        -1.696300        -0.766798
 H        -0.921099         0.099664        -2.093733
 H        -3.121524         1.519893        -1.343497
