19
Iteration:  2590
 C        -0.182333         2.639535        -0.093746
 C        -0.718426         1.253700        -0.008358
 C        -2.226683         0.713215         0.377665
 C        -1.933678        -0.474699        -0.495680
 C        -0.754748        -1.178563         0.285656
 C         0.018719         0.107509         0.796608
 O         0.767831         0.282330         1.756479
 C        -1.111881         0.465179        -1.381976
 O        -1.844373         1.096877        -2.475317
 H        -0.135951         2.924567        -1.168753
 H        -0.735372         3.432753         0.385661
 H         0.845586         2.767067         0.237196
 H        -2.519039         0.387433         1.503312
 H        -2.968988         1.501290        -0.054931
 H        -2.653702        -1.168577        -0.843474
 H        -1.147723        -1.656150         1.198280
 H        -0.116504        -1.987663        -0.146089
 H        -0.142731         0.154581        -1.722249
 H        -2.769163         1.280189        -2.312187
