19
Iteration:   229charge 0 multiplicity 1
 C        -0.037041         2.576211         0.143546
 C        -0.696039         1.191892         0.194367
 C        -1.946703         0.684370         1.080187
 C        -2.025189        -0.452136         0.032950
 C        -0.727360        -1.199253         0.267699
 C         0.193051         0.026333         0.133143
 O         1.320211         0.094416        -0.268323
 C        -1.562268         0.510309        -1.086475
 O        -2.456009         1.426765        -1.687013
 H         1.057521         2.622813         0.351977
 H        -0.326841         3.139552        -0.809663
 H        -0.477268         3.285829         0.885616
 H        -1.802301         0.499950         2.127012
 H        -2.783311         1.379461         0.994209
 H        -2.807860        -1.185921         0.002129
 H        -0.623987        -1.626540         1.342436
 H        -0.561820        -2.086254        -0.393800
 H        -1.055188        -0.015040        -1.963203
 H        -3.302674         1.610061        -1.147706
