19
Iteration:  4926charge 0 multiplicity 1
 C        -0.339411         2.767274         0.131766
 C        -0.833552         1.223144         0.025050
 C        -2.272080         0.785570         0.357540
 C        -1.965456        -0.472386        -0.460707
 C        -0.898035        -1.161115         0.445306
 C        -0.117769         0.138656         0.688607
 O         0.914235         0.239931         1.455550
 C        -0.999102         0.400030        -1.411272
 O        -1.656809         0.965323        -2.429012
 H        -1.107876         3.448713         0.612542
 H         0.575639         2.700758         0.792329
 H        -0.123471         3.118948        -0.967661
 H        -2.425417         0.661764         1.559677
 H        -2.961068         1.492368        -0.038060
 H        -2.643798        -0.987347        -1.014601
 H        -1.317167        -1.525283         1.432826
 H        -0.370157        -1.868248        -0.206786
 H        -0.074263        -0.098653        -1.614644
 H        -1.044025         1.603154        -2.965699
