19
Iteration:   584
 C        -0.154363         2.540751        -0.190422
 C        -0.658762         1.093957        -0.103055
 C        -1.942583         0.755230         0.964034
 C        -2.050017        -0.442028        -0.024842
 C        -0.690011        -1.280881         0.078538
 C         0.284297        -0.024374         0.251956
 O         1.428912         0.053542         0.639887
 C        -1.580362         0.584696        -1.220760
 O        -2.570128         1.563708        -1.585312
 H         0.668281         2.908530         0.487945
 H         0.181757         2.709910        -1.281548
 H        -1.078852         3.181575        -0.077063
 H        -1.643454         0.620425         1.925375
 H        -2.788725         1.382666         0.766204
 H        -2.984034        -1.041527        -0.180215
 H        -0.528137        -1.892425         1.018861
 H        -0.375309        -1.792486        -0.816318
 H        -1.124538         0.029743        -2.088828
 H        -3.040886         1.307793        -2.361204
