19
Iteration:  4930
 C        -0.391017         2.784945         0.107357
 C        -0.871453         1.224425         0.044782
 C        -2.280057         0.785868         0.361712
 C        -1.941478        -0.448674        -0.411910
 C        -0.925751        -1.142231         0.458151
 C        -0.079905         0.108960         0.702951
 O         0.933612         0.204607         1.427571
 C        -1.006274         0.392125        -1.387608
 O        -1.626657         0.976681        -2.454339
 H        -1.105853         3.472626         0.582326
 H         0.514431         2.683101         0.763013
 H        -0.068700         3.161850        -0.864325
 H        -2.362068         0.800439         1.329147
 H        -3.019087         1.467460        -0.116037
 H        -2.766105        -1.008498        -1.090384
 H        -1.253181        -1.616328         1.433690
 H        -0.371760        -1.880697        -0.180274
 H         0.067466         0.022403        -1.696851
 H        -1.072496         1.535350        -2.905667
