19
Iteration:  2097
 C        -0.192872         2.680836         0.073536
 C        -0.792767         1.217402         0.078471
 C        -2.318941         0.757466         0.451404
 C        -1.942569        -0.524369        -0.416035
 C        -0.838723        -1.226936         0.398373
 C        -0.034546         0.098155         0.710694
 O         1.045623         0.254640         1.235172
 C        -1.080447         0.484875        -1.337225
 O        -1.889953         1.180504        -2.330162
 H         0.467709         2.973735        -0.703442
 H        -1.159541         3.279192         0.003990
 H         0.218962         2.966487         1.068088
 H        -2.523825         0.785059         1.551513
 H        -3.108542         1.275910        -0.083937
 H        -2.674827        -1.211506        -0.862980
 H        -1.097314        -1.738117         1.327908
 H        -0.143457        -1.807091        -0.239341
 H        -0.205867         0.147964        -1.885542
 H        -2.325322         0.534093        -2.837076
