19
Iteration:  4216
 C        -0.248305         2.532320         0.061634
 C        -0.850163         1.176917         0.009660
 C        -2.345098         0.780053         0.135146
 C        -1.902261        -0.542532        -0.487047
 C        -0.926861        -1.151706         0.501133
 C        -0.146328         0.195468         0.812360
 O         0.859742         0.360108         1.493922
 C        -0.915849         0.361070        -1.352931
 O        -1.670926         1.150741        -2.322107
 H         0.696055         2.462969        -0.457417
 H        -0.905988         3.076359        -0.631270
 H        -0.099982         3.029777         1.075707
 H        -2.732456         0.845641         1.161426
 H        -2.969413         1.507421        -0.515510
 H        -2.717733        -1.150724        -0.892566
 H        -1.484629        -1.625101         1.309674
 H        -0.253886        -1.881563         0.082603
 H        -0.075563        -0.100504        -1.830920
 H        -0.937828         1.458428        -2.869922
