19
Iteration:  2649
 C        -0.342313         2.632728         0.002119
 C        -0.842113         1.173327        -0.101630
 C        -2.378571         0.727584         0.360237
 C        -1.881630        -0.482643        -0.463842
 C        -0.895314        -1.224621         0.495319
 C         0.002819         0.119247         0.762267
 O         0.939097         0.337343         1.531630
 C        -1.009912         0.409119        -1.393375
 O        -1.637781         1.162747        -2.471202
 H        -0.975844         3.385685        -0.427405
 H        -0.081628         2.804237         1.070052
 H         0.597440         2.512736        -0.513427
 H        -2.706210         0.463450         1.312415
 H        -3.073555         1.472999        -0.025550
 H        -2.713103        -1.211872        -0.807453
 H        -1.428123        -1.372412         1.463851
 H        -0.324364        -2.051593         0.061466
 H        -0.062517         0.092379        -1.790966
 H        -2.354272         1.660319        -1.918339
