19
Iteration:  4511charge 0 multiplicity 1
 C        -0.285751         2.651710        -0.091538
 C        -0.748443         1.157515        -0.070024
 C        -2.255467         0.786366         0.305789
 C        -1.914050        -0.515099        -0.560621
 C        -0.871860        -1.132587         0.500160
 C        -0.115908         0.125256         0.889655
 O         0.829227         0.298817         1.669479
 C        -0.980462         0.327126        -1.435219
 O        -1.763369         1.173893        -2.387275
 H         0.562863         2.706281         0.511796
 H        -0.114112         2.988076        -1.092861
 H        -0.967522         3.234113         0.564527
 H        -2.390538         0.573706         1.401434
 H        -2.933399         1.574844        -0.192637
 H        -2.497659        -1.173979        -1.222985
 H        -1.556288        -1.600057         1.263059
 H        -0.427989        -2.022915         0.046288
 H        -0.126552        -0.142147        -1.901451
 H        -1.019881         1.509892        -3.008466
