19
Iteration:  2912charge 0 multiplicity 1
 C        -0.131257         2.613639        -0.011629
 C        -0.809500         1.219039        -0.075904
 C        -2.351274         0.620191         0.355440
 C        -1.868904        -0.483436        -0.524880
 C        -0.815340        -1.226311         0.413390
 C        -0.068080         0.210155         0.813862
 O         0.746546         0.396874         1.725797
 C        -1.011964         0.430368        -1.408897
 O        -1.702838         1.123140        -2.521521
 H         0.752780         2.768925         0.590891
 H         0.233005         2.842570        -0.999440
 H        -0.841281         3.363472         0.359188
 H        -2.219651         0.257462         1.414335
 H        -3.280843         1.230728         0.054195
 H        -2.612337        -1.236096        -0.996034
 H        -1.427797        -1.611898         1.224482
 H        -0.437036        -1.972914        -0.253075
 H        -0.147144         0.029166        -1.840872
 H        -2.516928         1.423834        -2.224201
