19
Iteration:  2984charge 0 multiplicity 1
 C        -0.509803         2.625293         0.090258
 C        -0.776823         1.243319         0.047191
 C        -2.323924         0.766498         0.277850
 C        -1.900028        -0.498586        -0.541487
 C        -0.964448        -1.042215         0.553539
 C        -0.125365         0.190398         0.845830
 O         0.947653         0.204430         1.384525
 C        -0.964463         0.360206        -1.371535
 O        -1.476247         1.047768        -2.490987
 H         0.477808         2.991263         0.473416
 H        -0.470024         3.035465        -0.971087
 H        -1.249008         3.014433         0.756226
 H        -2.545284         0.523487         1.307400
 H        -3.070071         1.392616        -0.104752
 H        -2.547801        -1.117372        -1.083178
 H        -1.441964        -1.204005         1.536736
 H        -0.242422        -1.864431         0.303908
 H        -0.041576        -0.246950        -1.780489
 H        -2.096158         1.708598        -2.230870
