19
Iteration:  3381charge 0 multiplicity 1
 C        -0.425926         2.613074         0.065124
 C        -0.853541         1.191466        -0.012417
 C        -2.348517         0.808540         0.260976
 C        -1.921049        -0.487767        -0.486275
 C        -0.831922        -1.172604         0.409395
 C        -0.039746         0.168985         0.832067
 O         0.826442         0.325924         1.615843
 C        -0.915402         0.444069        -1.389224
 O        -1.584460         0.989785        -2.511327
 H         0.622033         2.724607        -0.019546
 H        -0.845251         3.364073        -0.487580
 H        -0.526684         2.828871         1.142873
 H        -2.560470         0.947286         1.347617
 H        -3.046287         1.604530        -0.234724
 H        -2.660026        -1.298882        -0.989938
 H        -1.089711        -1.946334         1.225599
 H        -0.135852        -1.777666        -0.326700
 H        -0.185368        -0.106655        -1.859920
 H        -1.882979         1.828292        -2.293940
