19
Iteration:  1346
 C        -0.429918         2.722880         0.249092
 C        -0.890824         1.261722         0.147824
 C        -2.259080         0.767177         0.684309
 C        -2.011867        -0.504764        -0.301239
 C        -0.844518        -1.150091         0.592470
 C         0.119765         0.065374         0.532879
 O         1.354727         0.028929         0.441278
 C        -1.196574         0.410684        -1.253937
 O        -1.869284         1.251891        -2.217062
 H         0.324469         2.898337         1.028980
 H        -0.093457         3.122584        -0.728733
 H        -1.297405         3.410616         0.393576
 H        -2.513788         0.658251         1.775288
 H        -3.007028         1.475635         0.263461
 H        -2.860415        -1.116694        -0.715371
 H        -1.094633        -1.259493         1.621139
 H        -0.443215        -2.004430         0.283793
 H        -0.296826         0.264608        -1.827351
 H        -2.784738         1.186492        -2.197185
