19
Iteration:  2072
 C        -0.216920         2.519868         0.001929
 C        -0.826610         1.187783        -0.047191
 C        -2.218058         0.712759         0.428777
 C        -1.934529        -0.495770        -0.475896
 C        -0.755267        -1.115075         0.358424
 C         0.089331         0.206520         0.685974
 O         1.008577         0.220554         1.533107
 C        -1.124607         0.459184        -1.451897
 O        -2.038333         1.243203        -2.281934
 H         0.852019         2.351600        -0.439329
 H        -0.787762         3.382182        -0.551924
 H        -0.048613         2.776271         1.121127
 H        -2.131120         0.571515         1.456376
 H        -3.059724         1.322109         0.207490
 H        -2.712675        -1.211102        -0.741371
 H        -1.143704        -1.530570         1.365334
 H        -0.179496        -1.917217        -0.281969
 H        -0.216809         0.324492        -2.030760
 H        -2.733309         0.827165        -2.789903
