19
Iteration:  3245
 C        -0.402430         2.652884         0.050341
 C        -0.850719         1.169150        -0.004447
 C        -2.332919         0.764696         0.342903
 C        -1.883341        -0.504270        -0.531025
 C        -0.900400        -1.166112         0.485950
 C        -0.056593         0.078420         0.854054
 O         0.895848         0.322652         1.517724
 C        -0.968180         0.390596        -1.346547
 O        -1.531194         1.201158        -2.499202
 H         0.633171         2.926798         0.246531
 H        -0.689805         3.051928        -0.971935
 H        -1.063992         3.045153         0.753654
 H        -2.816627         0.752342         1.318639
 H        -2.987895         1.323814        -0.262526
 H        -2.548561        -1.171668        -0.969596
 H        -1.442984        -1.554789         1.328618
 H        -0.398066        -2.028907         0.117199
 H        -0.009605        -0.067004        -1.665072
 H        -2.236582         0.736829        -3.071326
