19
Iteration:  2686
 C        -0.388999         2.744873         0.158015
 C        -0.894746         1.323261         0.080951
 C        -2.402277         0.815795         0.312783
 C        -1.957164        -0.528785        -0.404276
 C        -0.852672        -1.150607         0.449917
 C        -0.110209         0.148013         0.733321
 O         0.966269         0.215773         1.285234
 C        -0.976886         0.376233        -1.314916
 O        -1.500269         0.985440        -2.475168
 H        -1.101896         3.612643         0.178202
 H         0.238064         2.849669         1.052197
 H         0.405410         3.048739        -0.634039
 H        -2.776523         0.634913         1.314523
 H        -3.034033         1.385945        -0.331011
 H        -2.799388        -1.124428        -0.766691
 H        -1.211793        -1.707489         1.307706
 H        -0.257500        -1.932108        -0.056327
 H        -0.042565        -0.233442        -1.614255
 H        -2.344794         1.508573        -2.278223
