19
Iteration:  3672charge 0 multiplicity 1
 C        -0.276017         2.640041         0.063745
 C        -0.753352         1.242047        -0.036211
 C        -2.323996         0.742739         0.239134
 C        -1.839147        -0.588480        -0.453843
 C        -0.904166        -1.207982         0.505486
 C        -0.146817         0.154603         0.782660
 O         0.830221         0.302975         1.560047
 C        -0.945243         0.426230        -1.440021
 O        -1.749830         1.173118        -2.403970
 H         0.802062         2.636554         0.256837
 H        -0.488840         3.136078        -0.919969
 H        -0.701355         3.234159         0.788073
 H        -2.761004         0.638726         1.344158
 H        -2.938621         1.466997        -0.395654
 H        -2.508933        -1.248841        -0.861915
 H        -1.449024        -1.419389         1.437002
 H        -0.147072        -1.977242         0.410482
 H        -0.103772        -0.007303        -1.927116
 H        -1.205053         1.028178        -3.223791
