19
Iteration:  3724
 C        -0.138182         2.624757        -0.121347
 C        -0.777265         1.225078        -0.127541
 C        -2.303675         0.815181         0.321331
 C        -1.879723        -0.495654        -0.487638
 C        -0.766560        -1.172699         0.383827
 C        -0.107227         0.048413         0.845943
 O         0.639244         0.354282         1.743010
 C        -0.989069         0.386109        -1.402480
 O        -1.769193         1.083189        -2.372910
 H         0.821719         2.636418        -0.690715
 H        -0.909282         3.326324        -0.609098
 H         0.024563         3.064652         0.832483
 H        -2.565819         0.510827         1.291960
 H        -3.164457         1.174957        -0.194926
 H        -2.555405        -1.169250        -1.003064
 H        -1.036535        -1.818000         1.230998
 H        -0.072847        -1.819167        -0.224651
 H        -0.046364        -0.106320        -1.844786
 H        -1.363767         2.038532        -2.312004
