19
Iteration:  1322charge 0 multiplicity 1
 C        -0.367661         2.588198         0.346393
 C        -0.810352         1.202055         0.104810
 C        -2.255453         0.813158         0.637760
 C        -2.008453        -0.435737        -0.203230
 C        -0.843581        -1.095915         0.546308
 C         0.094428         0.101310         0.493501
 O         1.301291         0.116111         0.437730
 C        -1.173298         0.462688        -1.271191
 O        -1.952885         1.206292        -2.187516
 H        -0.017131         2.673562         1.327067
 H         0.364489         2.993524        -0.356919
 H        -1.279609         3.265942         0.167238
 H        -2.610053         0.804423         1.673091
 H        -2.919467         1.461872         0.012019
 H        -2.859216        -1.115990        -0.559201
 H        -1.029878        -1.369571         1.567044
 H        -0.536868        -1.930388         0.002906
 H        -0.342930         0.039133        -1.813485
 H        -2.432406         0.405318        -2.570036
