19
Iteration:   603
 C        -0.046082         2.543748        -0.335901
 C        -0.699172         1.181157        -0.106797
 C        -1.792409         0.652069         0.900779
 C        -2.023175        -0.523131        -0.124410
 C        -0.667278        -1.215694         0.044011
 C         0.222140         0.032780         0.277187
 O         1.306066         0.114852         0.791234
 C        -1.715312         0.498313        -1.166616
 O        -2.556486         1.570082        -1.511500
 H         0.989663         2.359095        -0.091084
 H        -0.045370         2.813763        -1.362792
 H        -0.358266         3.472376         0.306766
 H        -1.474857         0.273112         1.937926
 H        -2.659296         1.355442         0.850719
 H        -2.874212        -1.249783        -0.092414
 H        -0.708929        -1.964577         0.830537
 H        -0.427213        -1.682082        -1.009116
 H        -1.205464         0.212548        -2.067637
 H        -3.056769         1.442365        -2.299779
