19
Iteration:  1315
 C        -0.345469         2.609915         0.343862
 C        -0.815580         1.244994         0.125914
 C        -2.254038         0.843284         0.614643
 C        -2.023411        -0.469812        -0.220997
 C        -0.842638        -1.121800         0.519749
 C         0.090183         0.089400         0.497800
 O         1.305646         0.133949         0.458874
 C        -1.186093         0.417222        -1.277266
 O        -1.999608         1.188607        -2.173562
 H        -0.018079         2.785528         1.432366
 H         0.544332         2.904632        -0.249191
 H        -1.157689         3.289224         0.146944
 H        -2.457917         0.773829         1.679140
 H        -2.853914         1.557686         0.018743
 H        -2.863062        -1.054152        -0.545898
 H        -1.031432        -1.450445         1.559246
 H        -0.323818        -1.954148         0.014974
 H        -0.218420         0.013669        -1.643119
 H        -2.459472         0.628316        -2.917075
