19
Iteration:   755charge 0 multiplicity 1
 C        -0.226123         2.644359         0.025979
 C        -0.757246         1.205958         0.169264
 C        -2.098211         0.783479         0.788372
 C        -2.065551        -0.511332         0.008508
 C        -0.884841        -1.196979         0.505657
 C         0.222947         0.031822         0.363221
 O         1.396543         0.059049         0.035656
 C        -1.401642         0.432842        -1.090450
 O        -2.220646         1.417246        -1.830319
 H        -0.201970         3.160642         0.935279
 H         0.766788         2.618023        -0.353782
 H        -0.927698         3.135255        -0.754873
 H        -2.321059         0.681495         1.926968
 H        -2.876739         1.496408         0.459888
 H        -2.941994        -1.144128        -0.235031
 H        -1.010981        -1.435971         1.500379
 H        -0.485773        -2.064876        -0.040587
 H        -0.670059         0.041618        -1.863312
 H        -2.086819         1.223225        -2.797489
