19
Iteration:  3134
 C        -0.260746         2.653117        -0.105239
 C        -0.772787         1.232945        -0.098874
 C        -2.260911         0.855332         0.256418
 C        -1.809359        -0.567834        -0.521480
 C        -0.720414        -1.254017         0.362628
 C        -0.047617         0.087878         0.801766
 O         0.595388         0.364189         1.761295
 C        -1.028808         0.381526        -1.388144
 O        -1.733114         1.086150        -2.318086
 H         0.484514         2.705820        -0.906104
 H        -1.004137         3.423953        -0.226085
 H         0.334091         2.978607         0.787569
 H        -2.695512         0.764690         1.292811
 H        -3.090503         1.436096        -0.327168
 H        -2.516802        -1.319338        -0.877665
 H        -1.160440        -1.773277         1.202510
 H        -0.136399        -1.968255        -0.201738
 H        -0.244746        -0.073987        -1.863158
 H        -1.442397         1.963752        -2.313817
