19
Iteration:  3355
 C        -0.430225         2.694105         0.248009
 C        -0.887933         1.253900         0.050400
 C        -2.321043         0.747299         0.236388
 C        -1.913352        -0.534269        -0.482502
 C        -0.913660        -1.141928         0.463496
 C        -0.117615         0.220445         0.767526
 O         0.909432         0.313222         1.437209
 C        -0.949051         0.332084        -1.417021
 O        -1.483067         0.979874        -2.519861
 H         0.617548         2.924485        -0.081936
 H        -1.039859         3.484795        -0.343072
 H        -0.504105         3.031865         1.256523
 H        -2.717324         0.800020         1.255116
 H        -2.874301         1.388996        -0.385585
 H        -2.630755        -1.209227        -0.818018
 H        -1.466825        -1.475057         1.306392
 H        -0.411886        -1.980922         0.049584
 H        -0.025570        -0.257361        -1.827511
 H        -1.839479         1.749484        -2.160893
