19
Iteration:    90
 C        -0.083695         2.527228        -0.249918
 C        -0.675735         1.150214        -0.118199
 C        -1.652019         0.579115         1.035881
 C        -1.991256        -0.547209        -0.094516
 C        -0.594051        -1.251199        -0.181371
 C         0.292052        -0.025519         0.063782
 O         1.401043         0.067647         0.487285
 C        -1.765985         0.657102        -1.115867
 O        -2.864596         1.630411        -1.216196
 H        -0.327294         2.697077        -1.317792
 H        -0.486753         3.273992         0.318815
 H         1.002294         2.344575        -0.007530
 H        -1.102568         0.263736         1.955653
 H        -2.396456         1.362224         1.345101
 H        -2.963858        -1.091616        -0.024066
 H        -0.509754        -2.051809         0.429757
 H        -0.288564        -1.705369        -1.159801
 H        -1.480465         0.418046        -2.138566
 H        -2.870285         2.260531        -0.492154
