19
Iteration:  4800
 C        -0.311570         2.710844        -0.046815
 C        -0.758674         1.153999        -0.081401
 C        -2.262242         0.861140         0.269678
 C        -1.934752        -0.435156        -0.440161
 C        -0.754909        -1.097657         0.362784
 C        -0.065237         0.078773         0.818979
 O         0.716802         0.241706         1.678610
 C        -1.072497         0.318537        -1.389334
 O        -1.667939         1.056893        -2.376914
 H         0.504495         2.802898         0.654549
 H        -0.005512         3.039991        -1.043248
 H        -1.182848         3.279371         0.189498
 H        -2.507142         0.730955         1.453408
 H        -3.077225         1.596226        -0.199426
 H        -2.673788        -1.286806        -0.836431
 H        -1.054257        -1.700093         1.192342
 H        -0.097230        -1.732299        -0.252999
 H        -0.263170        -0.297685        -1.792087
 H        -0.988364         1.712620        -2.776362
