19
Iteration:  4179
 C        -0.418141         2.685012         0.083404
 C        -0.850291         1.268628         0.086580
 C        -2.421568         0.742065         0.232373
 C        -1.940657        -0.518903        -0.419281
 C        -1.024095        -1.077408         0.548605
 C        -0.169850         0.209150         0.850077
 O         0.989239         0.179059         1.305064
 C        -0.963446         0.351204        -1.346957
 O        -1.442627         1.037765        -2.454161
 H         0.519059         2.786010        -0.556695
 H        -1.178379         3.434133        -0.311436
 H        -0.135789         3.202601         1.161245
 H        -2.726652         0.560692         1.217121
 H        -3.009300         1.341954        -0.305245
 H        -2.644726        -0.977654        -1.103819
 H        -1.467513        -1.431322         1.500756
 H        -0.343642        -1.864842         0.100958
 H         0.086461         0.015370        -1.484800
 H        -0.860213         1.550873        -2.920699
