19
Iteration:  1319
 C        -0.361096         2.589000         0.346943
 C        -0.808473         1.227813         0.112382
 C        -2.259209         0.827402         0.634557
 C        -2.018480        -0.452996        -0.211279
 C        -0.847662        -1.093652         0.537768
 C         0.094754         0.096421         0.496316
 O         1.298794         0.124592         0.444692
 C        -1.177897         0.440498        -1.280006
 O        -1.976826         1.197727        -2.184482
 H        -0.005696         2.727220         1.380205
 H         0.433608         2.973328        -0.303160
 H        -1.213640         3.245060         0.148777
 H        -2.562685         0.788659         1.713588
 H        -2.824862         1.480753        -0.012769
 H        -2.857939        -1.074931        -0.551420
 H        -1.016326        -1.413960         1.605327
 H        -0.409860        -2.033140        -0.060702
 H        -0.213373         0.019217        -1.736055
 H        -2.409473         0.532091        -2.682162
