19
Iteration:  4500charge 0 multiplicity 1
 C        -0.279164         2.642048        -0.018499
 C        -0.751037         1.195067        -0.045073
 C        -2.236987         0.751281         0.205689
 C        -1.867640        -0.546166        -0.579455
 C        -1.000867        -1.235009         0.504185
 C        -0.127799         0.157212         0.892572
 O         0.844690         0.330917         1.557077
 C        -0.993593         0.400673        -1.385365
 O        -1.697926         1.143275        -2.312394
 H         0.705174         2.690961         0.334351
 H        -0.169227         3.033883        -1.025499
 H        -0.981907         3.431009         0.353235
 H        -2.437209         0.688688         1.309635
 H        -3.103865         1.446628        -0.127790
 H        -2.675021        -1.215305        -0.934666
 H        -1.601681        -1.500927         1.418374
 H        -0.240642        -1.980239         0.180717
 H        -0.095756         0.021280        -1.850398
 H        -1.140565         1.427538        -3.120893
