19
Iteration:  2543
 C        -0.259661         2.557308         0.050843
 C        -0.726032         1.161938        -0.023724
 C        -2.258350         0.790575         0.343526
 C        -1.925727        -0.502915        -0.525798
 C        -0.835691        -1.142624         0.346685
 C         0.000844         0.145011         0.755531
 O         0.862784         0.384062         1.599132
 C        -1.063127         0.368993        -1.441346
 O        -1.801198         1.090696        -2.382659
 H         0.440457         2.840611        -0.727015
 H        -1.077736         3.301577         0.103066
 H         0.300532         2.675176         1.038920
 H        -2.498460         0.784811         1.504223
 H        -2.839365         1.519746        -0.259505
 H        -2.800384        -1.052746        -0.881706
 H        -1.082304        -1.775341         1.188202
 H        -0.222989        -1.763460        -0.320668
 H        -0.320417        -0.313665        -1.865544
 H        -2.544224         1.660755        -1.980803
