19
Iteration:  1553
 C        -0.295887         2.649434         0.052602
 C        -0.801305         1.208287         0.031120
 C        -2.277108         0.742125         0.564318
 C        -1.986273        -0.519844        -0.407765
 C        -0.757339        -1.187457         0.393625
 C         0.145855         0.079839         0.557848
 O         1.245807         0.150487         1.023795
 C        -1.273015         0.468782        -1.287231
 O        -2.013457         1.354592        -2.107981
 H        -1.231176         3.219082         0.166835
 H         0.520877         2.704680         0.825277
 H         0.128137         2.876905        -0.887836
 H        -2.487433         0.507094         1.632494
 H        -3.120804         1.358016         0.162647
 H        -2.766474        -1.248262        -0.725552
 H        -1.031321        -1.563250         1.416954
 H        -0.238998        -2.130920        -0.060584
 H        -0.478934         0.174406        -1.980665
 H        -2.536291         0.749137        -2.730063
