19
Iteration:  1276
 C        -0.198775         2.558524         0.130055
 C        -0.807338         1.189125         0.084663
 C        -2.210016         0.781529         0.626110
 C        -2.032977        -0.474238        -0.268523
 C        -0.735659        -1.110374         0.379991
 C         0.140102         0.097351         0.466925
 O         1.295104         0.163259         0.824774
 C        -1.282743         0.548736        -1.279475
 O        -2.250413         1.130610        -2.151695
 H        -0.552883         2.995719         1.066928
 H         0.900814         2.495980         0.224534
 H        -0.374730         3.209880        -0.757135
 H        -2.217555         0.539541         1.733881
 H        -3.032036         1.449944         0.327484
 H        -2.872211        -1.146421        -0.544928
 H        -1.005644        -1.542450         1.359605
 H        -0.133182        -1.888394        -0.267836
 H        -0.500909         0.107427        -1.927137
 H        -1.877444         1.996951        -2.345870
