19
Iteration:   205charge 0 multiplicity 1
 C        -0.057661         2.510945         0.267964
 C        -0.762701         1.205065         0.112157
 C        -1.941920         0.754295         1.011797
 C        -2.060564        -0.414168         0.042333
 C        -0.661178        -1.244657         0.324871
 C         0.243751        -0.015251         0.095845
 O         1.359728         0.104499        -0.296969
 C        -1.522602         0.601811        -1.042515
 O        -2.625776         1.340772        -1.704948
 H         0.633351         2.414624         1.135786
 H         0.580344         2.721077        -0.725732
 H        -0.570851         3.451386         0.397932
 H        -1.626126         0.490233         2.051987
 H        -2.697465         1.535438         1.113421
 H        -2.890092        -1.048154        -0.138675
 H        -0.584383        -1.776176         1.375411
 H        -0.282770        -1.996258        -0.363220
 H        -0.951959         0.086952        -1.919046
 H        -2.687128         2.231009        -1.359910
