19
Iteration:  2737charge 0 multiplicity 1
 C        -0.411126         2.762027         0.275816
 C        -0.877696         1.347188         0.186764
 C        -2.337473         0.771698         0.297181
 C        -1.903898        -0.544760        -0.550038
 C        -0.987269        -1.103514         0.636023
 C        -0.128297         0.165545         0.853507
 O         1.057912         0.204381         1.182074
 C        -0.987684         0.241509        -1.515087
 O        -1.506722         1.032981        -2.534566
 H        -1.159095         3.431414         0.627647
 H         0.547247         3.062179         0.706187
 H        -0.235737         3.051240        -0.783568
 H        -2.623550         0.501504         1.354398
 H        -3.143102         1.444818        -0.184553
 H        -2.788445        -1.178274        -1.014115
 H        -1.626212        -1.305762         1.575218
 H        -0.327906        -1.975019         0.403058
 H         0.082002         0.027935        -1.689183
 H        -2.400822         1.470762        -2.248987
