19
Iteration:  4798charge 0 multiplicity 1
 C        -0.321944         2.696753        -0.036162
 C        -0.742950         1.148190        -0.081170
 C        -2.284931         0.866766         0.270513
 C        -1.916274        -0.434945        -0.445367
 C        -0.776376        -1.090054         0.361762
 C        -0.081739         0.085327         0.808017
 O         0.733565         0.246210         1.665775
 C        -1.072934         0.317112        -1.378257
 O        -1.663346         1.052464        -2.374024
 H         0.502755         2.785930         0.626145
 H        -0.017616         3.068822        -0.978364
 H        -1.101172         3.300139         0.200156
 H        -2.533105         0.766700         1.357547
 H        -3.028977         1.552975        -0.151623
 H        -2.638882        -1.254501        -0.827631
 H        -1.141601        -1.754850         1.174381
 H        -0.022697        -1.699188        -0.149327
 H        -0.210193        -0.248543        -1.815079
 H        -1.048448         1.642383        -2.755911
