19
Iteration:   207
 C        -0.055922         2.518586         0.255503
 C        -0.763732         1.212318         0.128618
 C        -1.932965         0.754099         1.012563
 C        -2.058418        -0.425578         0.048795
 C        -0.673230        -1.256208         0.326185
 C         0.238743        -0.011415         0.090019
 O         1.355165         0.110389        -0.299221
 C        -1.526815         0.601247        -1.035422
 O        -2.614304         1.341011        -1.714448
 H         0.693092         2.352278         1.065240
 H         0.518232         2.715113        -0.711175
 H        -0.597736         3.455537         0.455150
 H        -1.629368         0.511207         2.000786
 H        -2.705073         1.507232         1.058851
 H        -2.922621        -1.012995        -0.147025
 H        -0.619462        -1.772879         1.359978
 H        -0.229208        -2.010345        -0.348083
 H        -0.921635         0.143803        -1.888885
 H        -2.660200         2.183360        -1.254867
