19
Iteration:  2080charge 0 multiplicity 1
 C        -0.243332         2.555748         0.040365
 C        -0.805867         1.173185        -0.010244
 C        -2.250184         0.698724         0.442229
 C        -1.903819        -0.428924        -0.493809
 C        -0.767076        -1.091487         0.362930
 C         0.057425         0.146480         0.759701
 O         1.068817         0.243102         1.443098
 C        -1.177044         0.489567        -1.387174
 O        -2.001652         1.210892        -2.341414
 H         0.705386         2.330481        -0.594209
 H        -0.861221         3.321972        -0.380188
 H         0.155918         2.725643         1.034408
 H        -2.442733         0.364218         1.488841
 H        -2.983355         1.481494         0.101586
 H        -2.692466        -1.117110        -0.846171
 H        -1.266962        -1.670341         1.173702
 H        -0.213692        -1.937248        -0.069037
 H        -0.276023         0.077969        -1.948781
 H        -2.594317         0.663761        -2.820773
