19
Iteration:   615charge 0 multiplicity 1
 C         0.044608         2.464205        -0.377383
 C        -0.730216         1.135070        -0.131012
 C        -1.785199         0.669167         0.948385
 C        -2.016982        -0.539724        -0.133760
 C        -0.629000        -1.188993         0.009370
 C         0.177651         0.030473         0.232779
 O         1.211722         0.134126         0.882403
 C        -1.616236         0.594982        -1.259718
 O        -2.628683         1.559166        -1.455647
 H         1.105117         2.310427        -0.554384
 H        -0.477712         2.848771        -1.265315
 H        -0.125211         3.285444         0.425602
 H        -1.293911         0.475936         1.925144
 H        -2.613195         1.346590         1.208739
 H        -2.918366        -1.199935        -0.283478
 H        -0.383385        -1.894436         0.841400
 H        -0.107035        -1.702426        -0.895221
 H        -1.117489         0.197521        -2.128040
 H        -3.222992         1.280108        -2.226711
