19
Iteration:  3402
 C        -0.285473         2.704935        -0.007808
 C        -0.765897         1.258477        -0.005072
 C        -2.262986         0.700905         0.279658
 C        -1.841892        -0.544303        -0.534477
 C        -0.762850        -1.145455         0.374917
 C        -0.127469         0.141950         0.822252
 O         0.697172         0.300773         1.679274
 C        -1.055197         0.374204        -1.376316
 O        -1.638763         1.077052        -2.477862
 H         0.751417         2.825433        -0.177897
 H        -0.735140         3.264455        -0.761893
 H        -0.448592         3.249645         0.915591
 H        -2.542681         0.453916         1.317460
 H        -3.219919         1.036973        -0.248654
 H        -2.716616        -1.240897        -0.963939
 H        -1.162315        -1.551011         1.344486
 H         0.088008        -1.829157         0.029516
 H        -0.173169        -0.072543        -1.856616
 H        -2.030054         1.939637        -2.125069
