19
Iteration:  2697charge 0 multiplicity 1
 C        -0.402835         2.758138         0.160603
 C        -0.986229         1.271534         0.018960
 C        -2.451375         0.892144         0.244506
 C        -2.042675        -0.478143        -0.396816
 C        -0.857373        -1.199762         0.474103
 C        -0.012976         0.109559         0.707687
 O         1.048771         0.208441         1.288465
 C        -0.963999         0.405847        -1.267656
 O        -1.460492         0.962608        -2.434632
 H        -1.294629         3.368148         0.472975
 H         0.051007         2.563630         1.119764
 H         0.345758         3.194307        -0.613165
 H        -2.706029         1.057232         1.276137
 H        -3.282076         1.348624        -0.214509
 H        -2.631422        -1.142395        -1.036185
 H        -1.068522        -1.467619         1.499514
 H        -0.344068        -1.903625        -0.191092
 H         0.011290        -0.092660        -1.689051
 H        -2.344488         1.232327        -2.260370
