19
Iteration:  3982charge 0 multiplicity 1
 C        -0.161064         2.574440        -0.082559
 C        -0.796786         1.215195        -0.101078
 C        -2.212108         0.742380         0.278611
 C        -1.855569        -0.449284        -0.524695
 C        -0.826032        -1.147913         0.361797
 C        -0.079877         0.155004         0.838769
 O         0.656006         0.323012         1.779623
 C        -0.973933         0.411447        -1.411843
 O        -1.816454         1.076958        -2.346819
 H         0.910861         2.506565         0.064578
 H        -0.420935         3.190708        -0.874508
 H        -0.577980         3.107876         0.857297
 H        -2.485236         0.701901         1.374293
 H        -2.967361         1.320648        -0.204797
 H        -2.478787        -1.219252        -1.121681
 H        -1.401761        -1.644479         1.202768
 H        -0.148639        -1.809034        -0.244628
 H        -0.077646        -0.134470        -1.879568
 H        -1.407849         1.578687        -3.060216
