19
Iteration:  3000charge 0 multiplicity 1
 C        -0.481785         2.720006         0.114738
 C        -0.952550         1.242886        -0.023008
 C        -2.342172         0.765660         0.331792
 C        -1.845051        -0.492088        -0.484904
 C        -1.028488        -1.110194         0.620261
 C        -0.128300         0.136901         0.814387
 O         0.957116         0.212094         1.282685
 C        -0.820924         0.418245        -1.358276
 O        -1.439000         1.004484        -2.496323
 H         0.598614         2.694620         0.299044
 H        -0.811111         3.244588        -0.790437
 H        -1.012477         3.352681         0.921697
 H        -2.494123         0.671607         1.477158
 H        -3.106112         1.438299        -0.284231
 H        -2.608288        -1.216921        -0.963498
 H        -1.745390        -1.546642         1.335537
 H        -0.401858        -1.927814         0.297490
 H         0.163894         0.112124        -1.525069
 H        -2.140987         1.540978        -2.209743
