19
Iteration:  2422charge 0 multiplicity 1
 C        -0.380146         2.761086         0.176860
 C        -0.847257         1.329000         0.096314
 C        -2.354907         0.689198         0.351815
 C        -1.948959        -0.531933        -0.450842
 C        -1.009226        -1.128725         0.551085
 C        -0.056653         0.117386         0.737413
 O         1.101124         0.224857         1.104829
 C        -0.993992         0.404484        -1.345432
 O        -1.574891         1.107853        -2.420091
 H         0.190998         2.812008         1.070258
 H         0.213245         3.024253        -0.716641
 H        -1.206751         3.444018         0.313727
 H        -2.571356         0.442603         1.521094
 H        -3.205436         1.368691         0.101220
 H        -2.594044        -1.311219        -0.813301
 H        -1.557146        -1.393986         1.462342
 H        -0.461523        -2.017243         0.352029
 H        -0.170314        -0.193905        -1.609993
 H        -2.421230         0.832532        -2.727762
