19
Iteration:  4284
 C        -0.197179         2.682020        -0.054021
 C        -0.655496         1.264824        -0.123776
 C        -2.145542         0.865715         0.300267
 C        -1.927770        -0.439762        -0.475999
 C        -0.780293        -1.257245         0.277006
 C        -0.097912         0.189513         0.851834
 O         0.596088         0.246514         1.829606
 C        -0.962905         0.343025        -1.428854
 O        -1.843408         1.016548        -2.370847
 H         0.936393         2.758611        -0.038072
 H        -0.501970         3.114454        -1.006254
 H        -0.510808         3.242125         0.768290
 H        -2.495495         0.804740         1.449805
 H        -3.108035         1.397902        -0.203753
 H        -2.735328        -1.119525        -0.997207
 H        -0.967937        -2.011539         1.041717
 H        -0.125543        -1.707967        -0.428351
 H        -0.156652        -0.208894        -1.823259
 H        -1.658653         1.752897        -2.911879
