19
Iteration:  1638
 C        -0.369002         2.604123         0.287232
 C        -0.880552         1.134792         0.140292
 C        -2.292144         0.831186         0.624057
 C        -2.017074        -0.414551        -0.305333
 C        -0.822271        -1.126477         0.492187
 C         0.032036         0.085524         0.611297
 O         1.263227         0.191635         0.713370
 C        -1.149023         0.417663        -1.285365
 O        -1.877990         1.140492        -2.356915
 H         0.314805         2.814064         1.015873
 H         0.230528         2.740885        -0.626418
 H        -1.250517         3.317647         0.126106
 H        -2.590665         0.840243         1.592389
 H        -3.029514         1.275441        -0.031798
 H        -2.774937        -1.101177        -0.776898
 H        -1.164807        -1.360078         1.497607
 H        -0.403472        -2.001271        -0.038506
 H        -0.346827        -0.247197        -1.534369
 H        -1.639583         2.028180        -2.388405
