19
Iteration:  4805
 C        -0.297020         2.713821        -0.079747
 C        -0.783662         1.199404        -0.074763
 C        -2.233568         0.853869         0.301777
 C        -1.988398        -0.472881        -0.439605
 C        -0.724755        -1.136935         0.356312
 C        -0.051634         0.094414         0.805934
 O         0.704000         0.235537         1.734548
 C        -1.053731         0.324557        -1.412009
 O        -1.677263         1.083978        -2.401155
 H         0.493736         2.882677         0.711818
 H         0.040945         2.970406        -1.126250
 H        -1.295827         3.262194         0.197261
 H        -2.404934         0.733649         1.333354
 H        -2.931261         1.467555        -0.201583
 H        -2.671915        -1.152439        -0.776248
 H        -0.927763        -1.685700         1.326552
 H        -0.287484        -1.778342        -0.455425
 H        -0.291502        -0.396859        -1.793896
 H        -1.040876         1.679604        -2.702506
