19
Iteration:   582
 C        -0.168683         2.535603        -0.177386
 C        -0.651692         1.096122        -0.090973
 C        -1.940996         0.776332         0.961201
 C        -2.055873        -0.442524        -0.034087
 C        -0.687610        -1.272900         0.107106
 C         0.283854        -0.037123         0.239643
 O         1.433786         0.044131         0.621348
 C        -1.576718         0.589424        -1.216084
 O        -2.564914         1.552088        -1.592507
 H         0.585406         2.921807         0.513886
 H         0.206277         2.682353        -1.194917
 H        -1.138243         3.216756        -0.119382
 H        -1.611880         0.619621         1.981291
 H        -2.796871         1.424882         0.738444
 H        -2.968803        -1.081657        -0.198997
 H        -0.532232        -1.874818         1.011796
 H        -0.388127        -1.812788        -0.868719
 H        -1.069718         0.131960        -2.075877
 H        -3.089326         1.310373        -2.390623
