19
Iteration:  4404charge 0 multiplicity 1
 C        -0.466998         2.724154         0.171203
 C        -0.819057         1.252436         0.031332
 C        -2.348889         0.854057         0.267097
 C        -1.970125        -0.446468        -0.453063
 C        -1.015728        -1.053144         0.546476
 C        -0.094875         0.141692         0.819969
 O         0.962142         0.195175         1.344281
 C        -0.910421         0.347344        -1.363571
 O        -1.472038         0.896483        -2.511938
 H         0.459778         3.040302        -0.487750
 H        -1.319607         3.418003        -0.156529
 H        -0.310106         3.088546         1.230133
 H        -2.692877         0.538931         1.178589
 H        -3.130875         1.522073        -0.121774
 H        -2.711526        -1.142456        -0.908368
 H        -1.567664        -1.484909         1.406574
 H        -0.447231        -1.835592         0.082428
 H        -0.032224        -0.276758        -1.746491
 H        -1.041249         1.826077        -2.701798
