19
Iteration:  3440
 C        -0.231371         2.561062        -0.123871
 C        -0.774299         1.165079        -0.004063
 C        -2.219453         0.702084         0.210709
 C        -1.806668        -0.534803        -0.596682
 C        -0.723139        -1.200936         0.377766
 C        -0.124242         0.113581         0.902465
 O         0.646490         0.421687         1.794594
 C        -0.980653         0.429635        -1.477051
 O        -1.739910         1.218273        -2.337430
 H         0.899017         2.476431        -0.235160
 H        -0.791014         3.048251        -1.032900
 H        -0.570669         3.101414         0.770350
 H        -2.305192         0.620769         1.318706
 H        -3.105837         1.204667        -0.270119
 H        -2.528071        -1.126127        -0.987517
 H        -1.327793        -1.728621         1.126812
 H         0.017478        -1.859105        -0.069623
 H        -0.226822        -0.156293        -2.008458
 H        -2.723103         1.372820        -2.054339
