19
Iteration:  2487
 C        -0.388835         2.696913         0.081696
 C        -0.873885         1.230918         0.134133
 C        -2.317671         0.716968         0.340925
 C        -1.915682        -0.498563        -0.519829
 C        -0.896842        -1.095795         0.460520
 C        -0.093710         0.180485         0.761765
 O         1.026958         0.210181         1.225802
 C        -1.027163         0.374446        -1.334841
 O        -1.585727         1.080373        -2.379460
 H         0.670814         2.803109         0.265656
 H        -0.576409         3.102229        -0.943569
 H        -0.811693         3.381278         0.849064
 H        -2.564375         0.470880         1.445790
 H        -3.062019         1.477455         0.120275
 H        -2.695725        -1.252796        -0.809688
 H        -1.324262        -1.275028         1.459058
 H        -0.450613        -2.024946         0.178575
 H        -0.172586        -0.146980        -1.825652
 H        -2.369168         1.560238        -2.053789
