19
Iteration:   106
 C        -0.129179         2.534472        -0.309601
 C        -0.674723         1.132701        -0.096837
 C        -1.692157         0.472106         1.063419
 C        -1.977016        -0.478831        -0.052372
 C        -0.651066        -1.255515        -0.127510
 C         0.283155        -0.008872         0.088008
 O         1.464334         0.064643         0.413958
 C        -1.795101         0.679724        -1.041039
 O        -2.743118         1.677727        -1.315975
 H        -0.610608         3.261156        -1.021146
 H        -0.201946         3.050554         0.781592
 H         0.950159         2.616633        -0.514643
 H        -1.358765         0.101279         2.049642
 H        -2.569073         1.109119         1.254706
 H        -2.857097        -1.118408        -0.098207
 H        -0.445317        -2.103745         0.706694
 H        -0.549154        -1.712122        -1.120055
 H        -1.515972         0.422983        -2.121815
 H        -3.227966         1.606744        -0.455418
