19
Iteration:  3608
 C        -0.499446         2.703804         0.111375
 C        -0.911175         1.252915         0.006860
 C        -2.452716         0.867725         0.251611
 C        -1.985746        -0.554095        -0.455111
 C        -0.947025        -1.145319         0.527150
 C        -0.096109         0.182829         0.843620
 O         1.014169         0.210905         1.268451
 C        -0.895949         0.387266        -1.282453
 O        -1.340898         1.085130        -2.412411
 H         0.615563         2.594304         0.086443
 H        -0.855784         3.247233        -0.823166
 H        -0.807067         3.295947         1.065259
 H        -2.720517         0.533566         1.232149
 H        -3.277323         1.382565        -0.305870
 H        -2.635432        -1.271871        -0.904596
 H        -1.465893        -1.540906         1.407533
 H        -0.361444        -1.949022         0.121396
 H         0.021188        -0.184307        -1.536757
 H        -2.283049         0.831418        -2.748213
