19
Iteration:  3317
 C        -0.519775         2.587678         0.142972
 C        -0.883970         1.224539         0.141118
 C        -2.417439         0.729564         0.204158
 C        -1.830089        -0.533950        -0.475131
 C        -1.006373        -1.054722         0.566555
 C        -0.166854         0.191628         0.810973
 O         0.996552         0.259252         1.215821
 C        -0.860144         0.490015        -1.281774
 O        -1.389582         1.055021        -2.467319
 H         0.535209         2.560172        -0.151524
 H        -1.143969         3.233943        -0.458308
 H        -0.514519         2.809633         1.292603
 H        -3.039245         0.834197         1.124598
 H        -3.013328         1.355638        -0.561717
 H        -2.528151        -1.352243        -0.944262
 H        -1.637050        -1.320606         1.485275
 H        -0.324742        -1.954011         0.410836
 H         0.073930         0.036694        -1.588389
 H        -2.359068         1.165402        -2.568904
