19
Iteration:    12
 C        -0.071494         2.563842         0.007453
 C        -0.699671         1.197944        -0.036213
 C        -1.707158         0.629661         1.054297
 C        -2.032551        -0.495245        -0.011786
 C        -0.639780        -1.207751        -0.029379
 C         0.303069        -0.026685        -0.031463
 O         1.517983        -0.039812         0.108282
 C        -1.731448         0.694958        -1.030569
 O        -2.827675         1.550608        -1.343793
 H         0.667701         2.605675         0.852040
 H         0.389243         2.848797        -0.926177
 H        -0.868670         3.282387         0.247647
 H        -1.329820         0.238500         1.997916
 H        -2.456208         1.395458         1.244541
 H        -2.972984        -0.966578        -0.254898
 H        -0.364130        -1.935502         0.761273
 H        -0.623449        -1.694752        -1.005579
 H        -1.349715         0.467968        -2.022313
 H        -3.666919         1.320405        -0.885288
