19
Iteration:  4793charge 0 multiplicity 1
 C        -0.333194         2.632995        -0.018281
 C        -0.718835         1.175465        -0.073397
 C        -2.309734         0.859050         0.280132
 C        -1.895322        -0.463813        -0.466826
 C        -0.838452        -1.104702         0.378046
 C        -0.118744         0.130601         0.787887
 O         0.780539         0.256877         1.643517
 C        -1.035793         0.323354        -1.369566
 O        -1.678689         1.037170        -2.369182
 H         0.568966         2.777674         0.658799
 H         0.024192         3.121655        -0.993687
 H        -1.136393         3.438567         0.354395
 H        -2.603763         0.825111         1.334415
 H        -3.004251         1.553803        -0.238266
 H        -2.611876        -1.133851        -0.827068
 H        -1.290429        -1.787604         1.113885
 H         0.059768        -1.653507        -0.031365
 H        -0.136787        -0.135202        -1.818817
 H        -0.980755         1.658011        -2.817888
