19
Iteration:  1364charge 0 multiplicity 1
 C        -2.902284        -1.457667         1.522278
 C        -1.707611        -0.648538         1.220571
 C        -1.926101         0.294094         0.092076
 C        -0.789700         1.196031        -0.104623
 C         0.287416         0.050547         0.019027
 O         1.531262         0.115272         0.093598
 C        -0.651047        -1.222956         0.142948
 C        -0.233966        -2.641247        -0.029913
 O        -1.624847        -0.864663        -0.832275
 H        -2.791526        -2.383706         2.133495
 H        -3.685386        -0.892144         2.091164
 H        -3.291705        -1.850963         0.547561
 H        -1.509574         0.022792         2.062439
 H        -2.902364         0.722707        -0.079463
 H        -0.752622         1.651822        -1.124753
 H        -0.860332         1.769974         0.841635
 H         0.809335        -2.905455         0.340679
 H        -0.955809        -3.236087         0.512803
 H        -0.244762        -2.790414        -1.125196
