19
Iteration:   670
 C        -2.814331        -1.424566         1.642497
 C        -1.729496        -0.612475         1.129297
 C        -2.002880         0.178084        -0.043378
 C        -0.736558         1.088276        -0.201910
 C         0.306698         0.073783         0.043439
 O         1.477125         0.127151         0.350241
 C        -0.645717        -1.155763         0.011419
 C        -0.220509        -2.580921         0.065549
 O        -1.692789        -0.884496        -0.963397
 H        -2.477092        -2.524864         1.656302
 H        -3.120660        -1.086293         2.664693
 H        -3.624396        -1.424095         0.877841
 H        -1.202805        -0.062251         1.958334
 H        -3.040234         0.641985        -0.227428
 H        -0.707576         1.711979        -1.002054
 H        -0.656363         1.661951         0.790537
 H         0.614797        -2.503667         0.746995
 H        -1.060153        -3.295982         0.277309
 H         0.068300        -2.838149        -0.967291
