19
Iteration:  4021charge 0 multiplicity 1
 C        -3.016158        -1.606810         1.550353
 C        -1.815234        -0.688733         1.199703
 C        -2.033335         0.367491         0.032452
 C        -0.672332         1.256864        -0.081705
 C         0.296700        -0.044812         0.026941
 O         1.502552        -0.094839         0.007750
 C        -0.640623        -1.192168         0.143133
 C        -0.046364        -2.496874         0.138947
 O        -1.676491        -0.722642        -0.909241
 H        -3.633077        -1.612539         0.638654
 H        -2.762688        -2.570994         1.948835
 H        -3.479542        -0.893716         2.221522
 H        -1.390469        -0.281391         2.211188
 H        -3.090208         0.786051        -0.075742
 H        -0.479470         1.869321        -0.898782
 H        -0.512881         1.904012         0.790836
 H         0.813191        -2.434538         0.794000
 H        -0.803262        -3.267783         0.228674
 H         0.477434        -2.603326        -0.831576
