19
Iteration:   565
 C        -2.935608        -1.548390         1.372018
 C        -1.645850        -0.643091         1.361000
 C        -1.930114         0.265115         0.137233
 C        -0.725387         1.085381        -0.195860
 C         0.276585         0.007933        -0.018315
 O         1.509960         0.218966         0.021220
 C        -0.714472        -1.170945         0.197838
 C        -0.227589        -2.623637         0.191482
 O        -1.641379        -0.796308        -0.900981
 H        -3.197395        -2.031865         2.270414
 H        -3.831432        -1.006045         1.038390
 H        -2.860994        -2.225427         0.556449
 H        -1.202032        -0.220659         2.270229
 H        -3.000943         0.708078         0.007890
 H        -0.844494         1.419564        -1.244665
 H        -0.411294         1.937227         0.474651
 H        -0.051469        -2.891478         1.266656
 H        -1.144536        -3.195427        -0.038327
 H         0.711867        -2.758248        -0.342890
