19
Iteration:    29
 C        -2.890722        -1.585151         1.464843
 C        -1.691129        -0.524733         1.238803
 C        -1.925261         0.278810        -0.005638
 C        -0.725412         1.137700        -0.191458
 C         0.277735         0.015180         0.038967
 O         1.494605         0.186969         0.211722
 C        -0.646322        -1.178451         0.222584
 C        -0.158214        -2.605432         0.009853
 O        -1.761462        -0.916225        -0.813121
 H        -2.592641        -2.630396         1.742868
 H        -3.758561        -1.055859         1.898455
 H        -3.125549        -1.718596         0.391155
 H        -1.339069         0.110193         2.093527
 H        -2.867758         0.846609        -0.081147
 H        -0.694594         1.663553        -1.260512
 H        -0.697953         2.083139         0.511491
 H         0.774580        -3.033272         0.474981
 H        -0.849837        -3.386451         0.388510
 H        -0.236789        -2.704593        -1.132222
