19
Iteration:   899charge 0 multiplicity 1
 C        -2.872356        -1.565598         1.666918
 C        -1.777811        -0.694836         1.126724
 C        -1.978851         0.353366        -0.044537
 C        -0.683388         1.200342        -0.033588
 C         0.226523        -0.057232         0.099700
 O         1.412378        -0.000024         0.054019
 C        -0.817733        -1.180469         0.095061
 C        -0.085482        -2.510639         0.145962
 O        -1.589439        -0.732913        -1.008767
 H        -2.561110        -2.393342         2.326204
 H        -3.539201        -0.929421         2.264673
 H        -3.367093        -2.153647         0.885249
 H        -1.130889        -0.324568         1.943648
 H        -3.034964         0.816577        -0.173184
 H        -0.555050         1.719049        -1.016704
 H        -0.456344         2.025357         0.766789
 H         0.384216        -2.829046         1.115972
 H        -0.581228        -3.425704        -0.237810
 H         0.766124        -2.356073        -0.554961
