19
Iteration:  4282charge 0 multiplicity 1
 C        -2.958502        -1.548695         1.610794
 C        -1.749367        -0.688562         1.171702
 C        -2.030459         0.326016         0.032776
 C        -0.692999         1.227940        -0.155355
 C         0.331420         0.020636         0.148155
 O         1.542712        -0.136179         0.091653
 C        -0.692535        -1.146814         0.212037
 C        -0.111878        -2.532815         0.046136
 O        -1.694398        -0.673079        -1.007557
 H        -3.514698        -1.921872         0.757835
 H        -2.559411        -2.322405         2.241679
 H        -3.726301        -1.181586         2.204334
 H        -1.438535        -0.375365         2.191621
 H        -3.081892         0.688128        -0.005042
 H        -0.781120         1.608309        -1.153520
 H        -0.682544         2.221322         0.377550
 H         0.792947        -2.519321         0.690694
 H        -0.813445        -3.318682         0.220972
 H         0.316436        -2.861663        -0.942076
