19
Iteration:   883
 C        -2.940538        -1.655262         1.613027
 C        -1.825019        -0.673123         1.156222
 C        -2.022833         0.410483         0.060214
 C        -0.668060         1.126183        -0.091475
 C         0.294108         0.023974         0.072880
 O         1.498499        -0.023558         0.033113
 C        -0.682990        -1.240827         0.116302
 C        -0.015996        -2.493667         0.194646
 O        -1.740560        -0.670750        -1.053178
 H        -2.363333        -2.452024         2.097975
 H        -3.507115        -1.188119         2.428351
 H        -3.603231        -2.001293         0.787976
 H        -1.524053        -0.152716         2.073200
 H        -2.884218         0.984221        -0.118638
 H        -0.523967         1.427265        -1.188212
 H        -0.523985         1.874613         0.605920
 H        -0.025514        -2.599705         1.265604
 H        -0.613868        -3.321192        -0.180858
 H         1.002981        -2.472911        -0.196052
