19
Iteration:   731
 C        -2.918754        -1.616992         1.535236
 C        -1.806080        -0.701634         1.224826
 C        -1.969978         0.336767        -0.024667
 C        -0.683614         1.144473        -0.210462
 C         0.313015        -0.026752         0.066102
 O         1.525438         0.031811         0.171087
 C        -0.698525        -1.107288         0.212620
 C        -0.157304        -2.416521         0.085157
 O        -1.717702        -0.803927        -0.908313
 H        -2.588529        -2.338653         2.244740
 H        -3.814660        -1.170424         1.906321
 H        -3.132488        -2.157285         0.615318
 H        -1.329115        -0.350293         2.131248
 H        -2.847875         0.816570        -0.275853
 H        -0.637037         1.621652        -1.329844
 H        -0.499006         1.934115         0.482932
 H         0.893906        -2.476202         0.441738
 H        -0.665539        -3.217152         0.620812
 H        -0.022478        -2.691058        -0.975253
