19
Iteration:  2351charge 0 multiplicity 1
 C        -2.869808        -1.603073         1.552966
 C        -1.810085        -0.601648         1.145693
 C        -1.997585         0.408100        -0.047444
 C        -0.694010         1.246788        -0.037135
 C         0.288696        -0.009985         0.072119
 O         1.436922        -0.104577         0.035104
 C        -0.712610        -1.162162         0.232875
 C        -0.063822        -2.499377         0.065624
 O        -1.690840        -0.818567        -0.902074
 H        -2.636286        -2.600347         1.214521
 H        -2.906204        -1.628073         2.603602
 H        -3.836841        -1.371773         1.109312
 H        -1.400250         0.047645         1.953814
 H        -3.030860         0.817383        -0.293130
 H        -0.457575         1.779891        -0.942757
 H        -0.394853         1.767394         0.920864
 H         0.573882        -2.638934         0.915584
 H        -0.854378        -3.288212         0.097851
 H         0.540193        -2.501449        -0.800632
