19
Iteration:  2708charge 0 multiplicity 1
 C        -2.968687        -1.549903         1.618049
 C        -1.797168        -0.690804         1.151660
 C        -1.997193         0.357860        -0.058535
 C        -0.691982         1.193245        -0.049165
 C         0.273147        -0.095120         0.055875
 O         1.467101         0.013318         0.085616
 C        -0.684062        -1.181236         0.154092
 C        -0.100695        -2.525113         0.190593
 O        -1.589917        -0.739447        -1.023422
 H        -3.689465        -1.557054         0.739665
 H        -2.604253        -2.572436         1.864898
 H        -3.420104        -1.021741         2.492750
 H        -1.261208        -0.127991         1.978347
 H        -2.982166         0.775856        -0.338351
 H        -0.530143         1.704220        -1.064951
 H        -0.795342         1.990024         0.815284
 H         0.497976        -2.740831         1.077143
 H        -0.900010        -3.330018         0.124777
 H         0.480523        -2.649874        -0.714030
