19
Iteration:  4858charge 0 multiplicity 1
 C        -2.872995        -1.528362         1.555814
 C        -1.634259        -0.675166         1.131459
 C        -1.987685         0.355470         0.011322
 C        -0.718897         1.201287        -0.162571
 C         0.266504         0.014551         0.153966
 O         1.477135         0.007450         0.221657
 C        -0.688056        -1.160901         0.042816
 C        -0.236209        -2.635400         0.036029
 O        -1.688708        -0.747612        -0.912433
 H        -3.234956        -2.199125         0.755325
 H        -2.674054        -2.143363         2.486931
 H        -3.718756        -0.954132         1.980049
 H        -0.964631        -0.257479         1.951712
 H        -2.953609         0.813273        -0.037899
 H        -0.656419         1.668904        -1.195461
 H        -0.422073         2.147276         0.362459
 H         0.231913        -2.844771         1.113588
 H        -1.080611        -3.383856        -0.115371
 H         0.545310        -2.899185        -0.746844
