19
Iteration:  3007charge 0 multiplicity 1
 C        -2.869241        -1.508447         1.580377
 C        -1.731807        -0.521609         1.159549
 C        -2.002682         0.344403        -0.075882
 C        -0.763793         1.194004        -0.070019
 C         0.270609        -0.010692         0.050507
 O         1.470271        -0.051340         0.188822
 C        -0.629940        -1.207572         0.125443
 C        -0.120820        -2.599791         0.126591
 O        -1.727692        -0.842537        -0.998609
 H        -3.433578        -1.757813         0.687316
 H        -2.516454        -2.431272         2.040071
 H        -3.411658        -0.964847         2.380143
 H        -1.458023         0.134492         1.983021
 H        -3.000254         0.846658        -0.347776
 H        -0.550634         1.863212        -1.009597
 H        -0.452761         1.994334         0.783821
 H         0.335760        -2.797039         1.056870
 H        -0.736822        -3.417020        -0.093821
 H         0.739234        -2.499007        -0.558497
