19
Iteration:  2200
 C        -2.877702        -1.614309         1.693163
 C        -1.713150        -0.665530         1.221636
 C        -2.051429         0.405733         0.058425
 C        -0.630807         1.257447        -0.001860
 C         0.236430         0.039665         0.043526
 O         1.412414        -0.163991         0.087147
 C        -0.747954        -1.173835         0.009284
 C        -0.054987        -2.519635         0.085463
 O        -1.701754        -0.711328        -1.070736
 H        -2.790229        -1.742113         2.843621
 H        -3.873210        -1.411710         1.241496
 H        -2.616637        -2.637577         1.272531
 H        -1.170613        -0.147749         2.021812
 H        -2.924395         0.857064        -0.145667
 H        -0.632494         1.697509        -0.985587
 H        -0.331043         2.073428         0.720735
 H         0.957263        -2.253205         0.489300
 H        -0.714004        -3.297173         0.590479
 H         0.020604        -2.928932        -0.907327
