19
Iteration:  1549charge 0 multiplicity 1
 C        -2.883148        -1.672491         1.659489
 C        -1.899251        -0.614266         1.213906
 C        -2.005190         0.347580        -0.011626
 C        -0.637493         1.227133        -0.100144
 C         0.270647        -0.017775         0.080622
 O         1.528256        -0.164148        -0.002185
 C        -0.760090        -1.128619         0.108079
 C        -0.076831        -2.459224         0.072622
 O        -1.697890        -0.684679        -0.908071
 H        -2.452943        -2.234944         2.481564
 H        -3.813101        -1.165606         1.951418
 H        -2.982270        -2.354764         0.798000
 H        -1.270666        -0.325361         2.119178
 H        -2.997753         0.848245        -0.280399
 H        -0.696728         1.747032        -1.024694
 H        -0.657023         2.009783         0.662498
 H         0.798345        -2.292467         0.805406
 H        -0.674280        -3.370365         0.305994
 H         0.579893        -2.510110        -0.808619
