19
Iteration:  4515
 C        -2.813934        -1.565039         1.607598
 C        -1.698602        -0.634450         1.152433
 C        -1.958602         0.319181         0.001757
 C        -0.715144         1.194235        -0.068366
 C         0.311583        -0.027068         0.067206
 O         1.475801         0.024956         0.246461
 C        -0.680978        -1.169274         0.036243
 C        -0.289236        -2.565568         0.032924
 O        -1.675135        -0.759388        -1.001496
 H        -3.231748        -2.175171         0.831932
 H        -2.426522        -2.276686         2.330382
 H        -3.541723        -0.895689         1.990219
 H        -1.300900        -0.075594         2.014024
 H        -2.944314         0.836163        -0.208096
 H        -0.621972         1.455338        -1.166038
 H        -0.735116         2.039535         0.833649
 H         0.656546        -2.745998         0.552990
 H        -1.106111        -3.137088         0.668785
 H        -0.188268        -2.936310        -0.999748
