19
Iteration:  4326
 C        -2.895479        -1.496810         1.474600
 C        -1.714181        -0.563791         1.171244
 C        -1.918425         0.302417        -0.013582
 C        -0.733259         1.180196         0.002290
 C         0.317764         0.030585         0.095964
 O         1.493500         0.008684         0.014224
 C        -0.750836        -1.222519         0.155320
 C        -0.122646        -2.642247         0.134163
 O        -1.788061        -0.789498        -0.925036
 H        -3.487393        -1.561422         0.597852
 H        -2.521465        -2.354245         1.963358
 H        -3.494931        -1.098701         2.209343
 H        -1.247177        -0.091065         2.051460
 H        -2.883151         0.814196        -0.071321
 H        -0.347537         1.769349        -0.786530
 H        -0.681926         1.796988         0.951595
 H         0.393146        -2.871717         1.077518
 H        -0.743921        -3.297230        -0.388080
 H         0.753942        -2.708176        -0.550885
