19
Iteration:  4095
 C        -2.866870        -1.649825         1.535502
 C        -1.669422        -0.607575         1.204319
 C        -2.039968         0.355055         0.028174
 C        -0.710408         1.188174        -0.029534
 C         0.379413         0.079883         0.108900
 O         1.583884         0.074188        -0.003241
 C        -0.726295        -1.179447         0.157840
 C        -0.347216        -2.615091         0.076755
 O        -1.653247        -0.827215        -0.924533
 H        -3.133074        -2.035140         0.519710
 H        -2.680277        -2.217924         2.484542
 H        -3.783851        -0.995971         1.815129
 H        -1.239372        -0.015278         1.974997
 H        -3.092342         0.552046        -0.161553
 H        -0.528443         1.735867        -0.963056
 H        -0.539094         1.989682         0.708749
 H        -0.109110        -2.882538         1.111186
 H        -1.244139        -3.208104        -0.243176
 H         0.465329        -2.767222        -0.661255
