19
Iteration:   199
 C        -2.907018        -1.564248         1.585094
 C        -1.778774        -0.678628         1.149633
 C        -2.026415         0.317384        -0.002127
 C        -0.769398         1.256616        -0.047838
 C         0.220020         0.025258         0.093528
 O         1.435262         0.067469        -0.025177
 C        -0.750872        -1.218543         0.212336
 C        -0.156780        -2.547384         0.209906
 O        -1.430837        -0.844608        -1.043619
 H        -2.473523        -2.453195         2.021730
 H        -3.550609        -1.071245         2.315890
 H        -3.539320        -1.883872         0.764992
 H        -1.283444        -0.280850         2.044389
 H        -3.006363         0.759272        -0.299357
 H        -0.609441         1.946821        -0.858392
 H        -0.530699         1.909939         0.778890
 H         0.352721        -2.727076         1.199333
 H        -0.814802        -3.414357        -0.040870
 H         0.645680        -2.477058        -0.515795
