19
Iteration:  3743
 C        -2.947465        -1.512543         1.389053
 C        -1.731623        -0.571335         1.221821
 C        -1.989487         0.338396         0.026942
 C        -0.650759         1.181132        -0.003157
 C         0.292505        -0.069199         0.080309
 O         1.477046         0.001513        -0.048444
 C        -0.722948        -1.218365         0.227643
 C        -0.135010        -2.519201         0.087512
 O        -1.703303        -0.784385        -0.829327
 H        -2.918999        -2.412993         0.717110
 H        -2.774407        -1.894996         2.444557
 H        -3.995337        -1.110079         1.282312
 H        -1.256018        -0.125032         2.052305
 H        -2.968606         0.716737        -0.199599
 H        -0.715986         1.839173        -0.863362
 H        -0.530412         1.745781         0.885193
 H         0.853885        -2.596437         0.633394
 H        -0.576613        -3.453260         0.356061
 H         0.344887        -2.767437        -0.898748
