19
Iteration:   454
 C        -2.963822        -1.548142         1.478186
 C        -1.748778        -0.620386         1.180631
 C        -2.013554         0.341072         0.083122
 C        -0.706089         1.078759        -0.164959
 C         0.279896        -0.038538         0.040316
 O         1.486249         0.153440         0.073138
 C        -0.653491        -1.207044         0.235649
 C        -0.127257        -2.550931         0.139706
 O        -1.598029        -0.791734        -0.925569
 H        -2.706414        -2.406950         2.134513
 H        -3.725504        -0.959031         2.006970
 H        -3.348724        -1.918723         0.526205
 H        -1.384988        -0.171039         2.124584
 H        -3.168043         0.643997        -0.113776
 H        -0.738564         1.340569        -1.164305
 H        -0.526033         1.980220         0.538602
 H         0.702483        -2.690421         0.832743
 H        -0.922411        -3.286022         0.496972
 H         0.039099        -2.811545        -0.929024
