19
Iteration:  4294charge 0 multiplicity 1
 C        -2.999585        -1.573090         1.585742
 C        -1.781371        -0.689531         1.205179
 C        -1.933182         0.322176         0.057322
 C        -0.751487         1.200995        -0.149445
 C         0.238445         0.016579         0.034691
 O         1.489551        -0.143585         0.095230
 C        -0.672497        -1.167693         0.123752
 C        -0.078863        -2.489929         0.075269
 O        -1.635348        -0.664449        -0.919891
 H        -3.637480        -1.967525         0.771896
 H        -2.636870        -2.481261         2.072381
 H        -3.428992        -0.912707         2.262598
 H        -1.263786        -0.140656         2.033838
 H        -2.839393         0.903121        -0.142881
 H        -0.595873         1.442773        -1.156359
 H        -0.527804         1.942567         0.629210
 H         0.608932        -2.614855         0.926229
 H        -0.828327        -3.264941         0.213451
 H         0.451960        -2.453914        -0.881012
