19
Iteration:  4880
 C        -2.921297        -1.574727         1.530594
 C        -1.781334        -0.570878         1.270199
 C        -1.956928         0.337918         0.052715
 C        -0.670335         1.148277        -0.123900
 C         0.277861        -0.040047        -0.017462
 O         1.506284         0.033610         0.146646
 C        -0.701496        -1.183027         0.249498
 C        -0.189672        -2.578458        -0.024421
 O        -1.634160        -0.772665        -0.905251
 H        -3.063281        -2.191416         0.620680
 H        -3.079316        -2.101982         2.491526
 H        -3.861465        -0.970338         1.587149
 H        -1.252183        -0.060650         2.110677
 H        -2.897496         0.818713        -0.170947
 H        -0.561453         1.619491        -1.163328
 H        -0.499356         2.079975         0.516651
 H         0.483405        -3.042128         0.832223
 H        -1.001792        -3.370959        -0.198810
 H         0.329738        -2.464377        -1.001201
