19
Iteration:   932
 C        -2.855554        -1.486524         1.611896
 C        -1.751128        -0.586093         1.157077
 C        -2.087299         0.245893        -0.071045
 C        -0.830008         1.215498        -0.019743
 C         0.357117         0.041228         0.098084
 O         1.581920         0.060304         0.129249
 C        -0.646817        -1.185458         0.133776
 C        -0.211605        -2.630244         0.003854
 O        -1.600954        -0.864609        -0.917723
 H        -2.610513        -2.003757         2.538610
 H        -3.722609        -0.829468         1.780345
 H        -3.193041        -2.050485         0.742783
 H        -1.370952         0.001769         2.002842
 H        -3.168239         0.661350        -0.118379
 H        -0.831115         1.825839        -0.918280
 H        -0.742081         1.830101         0.985971
 H         0.628564        -3.161899         0.527418
 H        -1.125558        -3.226703        -0.067461
 H        -0.017130        -2.591258        -1.097133
