19
Iteration:   708charge 0 multiplicity 1
 C        -2.903649        -1.578960         1.453467
 C        -1.706071        -0.606352         1.243342
 C        -1.975968         0.353616         0.056603
 C        -0.716236         1.156658        -0.293341
 C         0.283671         0.095936         0.095266
 O         1.461853         0.130859         0.234431
 C        -0.710983        -1.211489         0.116331
 C        -0.134350        -2.738036         0.070095
 O        -1.689365        -0.747911        -0.835567
 H        -2.508122        -2.483636         1.803150
 H        -3.552162        -1.243034         2.253399
 H        -3.512414        -1.766639         0.579160
 H        -1.423557        -0.041892         2.103173
 H        -2.919679         0.825696        -0.021947
 H        -0.622508         1.266066        -1.535559
 H        -0.464421         2.117842         0.145983
 H         0.923815        -2.903034         0.443540
 H        -0.684629        -3.461777         0.642540
 H        -0.006662        -3.123328        -0.959265
