19
Iteration:   727
 C        -2.904250        -1.615068         1.534304
 C        -1.822349        -0.683374         1.211887
 C        -1.972325         0.347245         0.019969
 C        -0.685817         1.138347        -0.237491
 C         0.333252        -0.047612         0.059914
 O         1.537184         0.067807         0.185462
 C        -0.690556        -1.141482         0.239405
 C        -0.169148        -2.446940         0.085317
 O        -1.725210        -0.789575        -0.929606
 H        -2.560824        -2.432164         2.191663
 H        -3.855657        -1.190895         1.918722
 H        -3.240498        -2.030112         0.557503
 H        -1.252352        -0.448304         2.127400
 H        -2.952243         0.854980        -0.276219
 H        -0.694966         1.432468        -1.213367
 H        -0.489453         2.122367         0.307119
 H         0.887328        -2.447062         0.416778
 H        -0.618774        -3.274568         0.609625
 H        -0.052396        -2.688460        -0.959095
