19
Iteration:   114
 C        -2.794397        -1.603895         1.625610
 C        -1.755385        -0.558635         1.141920
 C        -1.991594         0.329633        -0.120689
 C        -0.747291         1.276821        -0.146281
 C         0.264140         0.068935         0.126903
 O         1.452215        -0.058398         0.244077
 C        -0.730608        -1.153397         0.135303
 C        -0.102012        -2.532549         0.048118
 O        -1.702415        -0.891031        -0.981282
 H        -2.373366        -2.133512         2.518546
 H        -3.654052        -1.149037         2.138254
 H        -3.152566        -2.346845         0.902748
 H        -1.209863         0.018404         1.937113
 H        -2.955311         0.839230        -0.363444
 H        -0.574332         1.632896        -1.130440
 H        -0.768252         1.989275         0.777853
 H         0.676192        -2.688422         0.790413
 H        -0.853223        -3.291915         0.122253
 H         0.377854        -2.644515        -0.902890
