19
Iteration:  1854charge 0 multiplicity 1
 C        -2.947131        -1.555833         1.459617
 C        -1.789141        -0.598114         1.242577
 C        -1.936652         0.302399         0.075455
 C        -0.688954         1.205972        -0.100272
 C         0.298253         0.047440         0.000707
 O         1.550618         0.079338        -0.040018
 C        -0.612752        -1.176092         0.298065
 C        -0.213533        -2.654868         0.122709
 O        -1.726428        -0.820612        -0.908220
 H        -2.471073        -2.548762         1.366313
 H        -3.351355        -1.659262         2.458298
 H        -3.731667        -1.573266         0.731490
 H        -1.570001        -0.023172         2.144065
 H        -3.006644         0.824659         0.122275
 H        -0.520927         1.851268        -1.041988
 H        -0.629217         1.955469         0.736219
 H         0.838061        -2.584301         0.390721
 H        -0.699794        -3.435115         0.682219
 H        -0.134711        -2.835465        -0.880920
