19
Iteration:  3421
 C        -2.937288        -1.432584         1.550073
 C        -1.747813        -0.614987         1.176951
 C        -1.939309         0.255106        -0.007956
 C        -0.752590         1.176350        -0.047186
 C         0.299727         0.068781         0.093836
 O         1.472734        -0.046018         0.047258
 C        -0.680234        -1.227574         0.172398
 C        -0.106968        -2.541482         0.018768
 O        -1.645176        -0.819885        -0.871900
 H        -3.122283        -2.152808         0.724760
 H        -2.984587        -1.951294         2.546091
 H        -3.887748        -0.804217         1.506594
 H        -1.316603        -0.249162         2.093924
 H        -2.894636         0.854620        -0.210060
 H        -0.676227         1.799988        -0.884873
 H        -0.927295         1.932542         0.684289
 H         0.772792        -2.649876         0.705838
 H        -0.828965        -3.381126         0.286430
 H         0.231663        -2.791358        -1.014405
