19
Iteration:   460
 C        -2.941951        -1.555322         1.531851
 C        -1.792987        -0.732184         1.184436
 C        -2.045749         0.369192         0.072073
 C        -0.731481         1.119551        -0.134545
 C         0.300064        -0.051995         0.037777
 O         1.496965         0.117482         0.044791
 C        -0.688195        -1.181366         0.185208
 C        -0.121451        -2.532562         0.214778
 O        -1.562900        -0.755472        -0.987699
 H        -2.989402        -2.489774         2.130140
 H        -3.674572        -0.974199         2.124570
 H        -3.570743        -1.947006         0.690983
 H        -1.344522        -0.318839         2.102100
 H        -2.935686         0.776016        -0.216098
 H        -0.642987         1.575523        -1.217303
 H        -0.487108         1.968819         0.474388
 H         0.807108        -2.496113         0.831373
 H        -0.774591        -3.285405         0.579579
 H         0.162086        -2.860718        -0.788896
