19
Iteration:  1410
 C        -2.854612        -1.649612         1.611918
 C        -1.793717        -0.527811         1.181575
 C        -2.025919         0.444650         0.025493
 C        -0.650941         1.212359        -0.055085
 C         0.271306        -0.063719         0.021884
 O         1.453278        -0.124731         0.098140
 C        -0.768983        -1.198707         0.048841
 C        -0.004825        -2.472169         0.107373
 O        -1.762185        -0.746985        -0.990317
 H        -2.439331        -2.085260         2.569717
 H        -3.865322        -1.299613         1.957691
 H        -2.988532        -2.568743         0.984859
 H        -1.309251        -0.241758         2.102080
 H        -2.960397         0.902838         0.031399
 H        -0.698218         1.634970        -1.142004
 H        -0.333851         1.809930         0.829397
 H         0.837476        -2.339695         0.822179
 H        -0.660443        -3.308850         0.373515
 H         0.511821        -2.535636        -0.840866
