19
Iteration:  2176charge 0 multiplicity 1
 C        -2.804299        -1.614678         1.524821
 C        -1.724417        -0.613583         1.208836
 C        -2.015844         0.326145         0.008497
 C        -0.707853         1.210765        -0.033657
 C         0.263965        -0.013298         0.054533
 O         1.527862        -0.057114        -0.024334
 C        -0.735323        -1.181113         0.112374
 C        -0.208048        -2.552366         0.107201
 O        -1.657702        -0.689241        -0.847078
 H        -2.978063        -1.551742         2.588796
 H        -3.728511        -1.474136         0.909312
 H        -2.543826        -2.659649         1.362258
 H        -1.486308         0.065535         2.033791
 H        -2.994693         0.701785        -0.223232
 H        -0.657416         1.967693        -0.766033
 H        -0.653011         1.741111         0.992662
 H         0.827233        -2.561931         0.275496
 H        -0.828634        -3.235549         0.615717
 H        -0.464432        -2.832764        -0.914284
