19
Iteration:   312
 C        -2.935823        -1.602549         1.504472
 C        -1.714437        -0.710535         1.232376
 C        -1.984086         0.312255         0.025015
 C        -0.647532         1.170492        -0.324290
 C         0.259517         0.056084         0.021407
 O         1.438105         0.201010         0.204768
 C        -0.591391        -1.176564         0.221388
 C        -0.170855        -2.613570         0.112642
 O        -1.679762        -0.816766        -0.854317
 H        -2.722095        -2.606487         1.938860
 H        -3.597106        -1.094434         2.221434
 H        -3.581695        -1.853646         0.621271
 H        -1.233878        -0.259988         2.172856
 H        -2.995866         0.934104        -0.180268
 H        -0.530786         1.340744        -1.408175
 H        -0.403426         2.194188         0.288006
 H         0.575530        -3.065459         0.811725
 H        -1.044562        -3.296785         0.150042
 H         0.046943        -2.700439        -1.003752
