19
Iteration:   974charge 0 multiplicity 1
 C        -2.907252        -1.616401         1.529210
 C        -1.685864        -0.659808         1.167725
 C        -1.980897         0.404334         0.130526
 C        -0.712091         1.188574        -0.254540
 C         0.301430        -0.017152        -0.006620
 O         1.456842         0.105531         0.254546
 C        -0.647295        -1.196749         0.163648
 C        -0.198023        -2.684595         0.062971
 O        -1.696545        -0.677614        -0.920872
 H        -2.570444        -2.333905         2.311697
 H        -3.739469        -1.091362         1.970568
 H        -3.217602        -2.172841         0.661504
 H        -1.177814        -0.220103         2.012802
 H        -3.048517         0.806239        -0.085054
 H        -0.662302         1.332117        -1.402755
 H        -0.452171         2.134347         0.294079
 H         0.882067        -2.716412         0.359780
 H        -0.624330        -3.497685         0.696801
 H        -0.366556        -3.134355        -0.940030
