19
Iteration:  4295
 C        -2.994818        -1.577764         1.582274
 C        -1.780305        -0.683162         1.205077
 C        -1.931908         0.331655         0.055785
 C        -0.746741         1.195169        -0.138488
 C         0.225617         0.014303         0.022186
 O         1.486889        -0.139736         0.095604
 C        -0.685445        -1.163912         0.119754
 C        -0.072400        -2.488702         0.079006
 O        -1.627807        -0.672831        -0.913296
 H        -3.660257        -1.930622         0.738589
 H        -2.647626        -2.507457         2.099639
 H        -3.430537        -0.886475         2.280034
 H        -1.244034        -0.141814         2.040418
 H        -2.830895         0.897994        -0.155994
 H        -0.598912         1.453168        -1.145272
 H        -0.509764         1.916019         0.619795
 H         0.620178        -2.609642         0.925238
 H        -0.849433        -3.276213         0.154920
 H         0.465080        -2.486663        -0.856230
