19
Iteration:   983
 C        -2.842009        -1.598343         1.469595
 C        -1.685889        -0.627148         1.206922
 C        -1.963081         0.345152         0.046026
 C        -0.760731         1.179145        -0.232688
 C         0.298166         0.035818        -0.023169
 O         1.500598         0.006501         0.290688
 C        -0.699815        -1.186143         0.143249
 C        -0.198690        -2.630583         0.070913
 O        -1.721755        -0.693489        -0.906269
 H        -2.352489        -2.291792         2.193874
 H        -3.617923        -1.049431         2.003751
 H        -3.308977        -2.073758         0.622181
 H        -1.235523        -0.392106         2.187178
 H        -2.904352         0.899694         0.165569
 H        -1.026138         1.447768        -1.343896
 H        -0.602877         2.039355         0.302642
 H         0.859488        -2.473936         0.238565
 H        -0.602177        -3.223738         0.943552
 H        -0.217721        -3.140092        -0.904055
