19
Iteration:  1736charge 0 multiplicity 1
 C        -2.845944        -1.551665         1.633036
 C        -1.725137        -0.629120         1.274958
 C        -1.919392         0.273314         0.128846
 C        -0.741557         1.271839        -0.201710
 C         0.310210         0.073090         0.043298
 O         1.533947         0.125623         0.126056
 C        -0.634478        -1.224671         0.040167
 C        -0.346906        -2.685075        -0.012127
 O        -1.665124        -0.819289        -0.911322
 H        -2.692672        -2.114899         2.615330
 H        -3.851267        -1.100859         1.763414
 H        -2.954752        -2.322553         0.858345
 H        -1.558037        -0.018242         2.202512
 H        -2.944483         0.692964        -0.039502
 H        -0.641568         1.643440        -1.281447
 H        -0.500799         2.155193         0.383119
 H        -0.066993        -3.154459         0.980463
 H        -1.244342        -3.192051        -0.538978
 H         0.627524        -2.857491        -0.528916
