19
Iteration:  4593
 C        -3.009372        -1.552735         1.534307
 C        -1.691203        -0.546606         1.219258
 C        -1.986924         0.384583        -0.012675
 C        -0.739521         1.188383        -0.112719
 C         0.285689         0.057053         0.024645
 O         1.495449        -0.059745         0.152349
 C        -0.661534        -1.154506         0.199039
 C        -0.122517        -2.622100        -0.022049
 O        -1.653559        -0.837172        -0.838855
 H        -3.476263        -1.941420         0.656654
 H        -2.560223        -2.390217         2.058443
 H        -3.661335        -0.980711         2.144266
 H        -1.110574        -0.185755         2.075908
 H        -2.960303         0.864110        -0.301232
 H        -0.774814         1.810371        -1.113214
 H        -0.406557         2.112669         0.578225
 H         0.128735        -3.276696         0.828815
 H        -1.042199        -3.225420        -0.404043
 H         0.727919        -2.526922        -0.763649
