19
Iteration:  2533
 C        -2.935791        -1.409563         1.588682
 C        -1.691144        -0.649178         1.222053
 C        -1.998658         0.304386         0.003199
 C        -0.743456         1.199100        -0.138855
 C         0.284443         0.044619         0.085093
 O         1.494920         0.173293         0.212985
 C        -0.655496        -1.202501         0.197341
 C        -0.205463        -2.785606        -0.086339
 O        -1.633010        -0.856158        -0.939990
 H        -3.546332        -1.697050         0.696818
 H        -2.697247        -2.311149         2.272217
 H        -3.532965        -0.734981         2.250586
 H        -1.022148        -0.311619         2.090041
 H        -3.070868         0.678551        -0.171092
 H        -0.578091         1.590607        -1.115957
 H        -0.537251         2.074823         0.525508
 H         0.243144        -3.381902         0.706702
 H        -1.115585        -3.286321        -0.538006
 H         0.644445        -2.746122        -0.806721
