19
Iteration:  3676
 C        -2.892835        -1.558704         1.612066
 C        -1.756560        -0.580890         1.137077
 C        -1.909338         0.297050        -0.052142
 C        -0.690686         1.227309        -0.065290
 C         0.212461         0.032929         0.098473
 O         1.467663         0.020909         0.082474
 C        -0.697965        -1.187218         0.118927
 C        -0.191790        -2.602137         0.102413
 O        -1.651861        -0.784749        -0.959835
 H        -3.665881        -1.658195         0.775922
 H        -2.311774        -2.504138         1.867393
 H        -3.442125        -1.204603         2.517146
 H        -1.275794        -0.253251         2.005651
 H        -2.895810         0.718555        -0.228095
 H        -0.474751         1.797619        -0.992700
 H        -0.436006         1.678026         0.889243
 H         0.333392        -2.764811         1.152509
 H        -1.054352        -3.332202         0.139059
 H         0.517443        -2.831135        -0.786852
