19
Iteration:  4173
 C        -2.859807        -1.471369         1.605985
 C        -1.767726        -0.587411         1.213688
 C        -2.059902         0.396278        -0.029389
 C        -0.640973         1.180642        -0.094392
 C         0.302039         0.023250         0.065494
 O         1.462955        -0.108178         0.188917
 C        -0.753040        -1.191917         0.102887
 C        -0.045213        -2.539684        -0.019374
 O        -1.738900        -0.843373        -0.926222
 H        -3.452894        -1.801747         0.633715
 H        -2.294497        -2.466472         1.881948
 H        -3.461676        -1.082979         2.518891
 H        -1.325640         0.014256         2.114548
 H        -3.074712         0.804132        -0.322255
 H        -0.506547         1.752531        -1.021050
 H        -0.642839         1.859997         0.842582
 H         0.845052        -2.697814         0.618075
 H        -0.755501        -3.326146         0.252280
 H         0.203433        -2.592454        -1.132063
