19
Iteration:  3033charge 0 multiplicity 1
 C        -2.829946        -1.580041         1.480607
 C        -1.650970        -0.646938         1.204566
 C        -1.999224         0.359399         0.000931
 C        -0.661304         1.185270        -0.302086
 C         0.298709        -0.002513         0.084775
 O         1.495612         0.087917         0.238370
 C        -0.717777        -1.198279         0.093874
 C        -0.277421        -2.565611         0.135407
 O        -1.740909        -0.814273        -0.874168
 H        -3.349306        -1.807653         0.511563
 H        -2.475923        -2.598667         1.891768
 H        -3.391906        -1.131169         2.310121
 H        -1.280484        -0.131200         2.134467
 H        -2.974526         0.768444        -0.185387
 H        -0.503624         1.749426        -1.238910
 H        -0.405247         1.937157         0.395651
 H        -0.117087        -2.838801         1.231669
 H        -1.041555        -3.350951        -0.214697
 H         0.745948        -2.627570        -0.311244
