19
Iteration:  2078
 C        -2.857581        -1.684872         1.657365
 C        -1.824189        -0.498622         1.255070
 C        -1.966404         0.410318         0.027167
 C        -0.667758         1.161161         0.067163
 C         0.235101        -0.023765         0.039566
 O         1.461684        -0.143068        -0.049516
 C        -0.730183        -1.173577         0.069032
 C        -0.073921        -2.487061        -0.005872
 O        -1.702670        -0.712448        -0.937724
 H        -3.938834        -1.408861         1.591744
 H        -2.683483        -2.639497         1.055103
 H        -2.820679        -1.908994         2.745267
 H        -1.385004        -0.048862         2.128748
 H        -2.833793         0.870851        -0.300300
 H        -0.675353         1.834342        -0.751151
 H        -0.418935         1.752011         0.990770
 H         0.600243        -2.490484         0.844490
 H        -0.719182        -3.356237        -0.150335
 H         0.572974        -2.399813        -0.953244
