19
Iteration:  4035charge 0 multiplicity 1
 C        -3.022667        -1.600933         1.559495
 C        -1.772399        -0.693498         1.147049
 C        -1.967523         0.343879         0.047452
 C        -0.649002         1.162800        -0.019445
 C         0.294523         0.084283         0.105668
 O         1.533452        -0.105064        -0.039389
 C        -0.784096        -1.119827         0.129955
 C        -0.070284        -2.495604         0.128035
 O        -1.667901        -0.704902        -0.954601
 H        -3.641696        -2.154906         0.814232
 H        -2.606337        -2.539482         2.052790
 H        -3.713822        -1.232915         2.294236
 H        -1.264130        -0.202529         2.143100
 H        -2.881036         0.970084        -0.186110
 H        -0.661154         1.562617        -1.117695
 H        -0.525800         2.020333         0.725065
 H         0.530404        -2.533674         1.110039
 H        -0.762529        -3.318110         0.347111
 H         0.563843        -2.822079        -0.740079
