19
Iteration:  4003
 C        -2.974180        -1.450483         1.454906
 C        -1.697408        -0.593166         1.241105
 C        -1.958867         0.301132         0.039349
 C        -0.716227         1.167913        -0.014345
 C         0.253851         0.015942         0.002813
 O         1.427687        -0.036337         0.043782
 C        -0.751712        -1.205401         0.214986
 C        -0.043390        -2.592287         0.045878
 O        -1.636905        -0.799723        -0.896685
 H        -3.494177        -1.488456         0.465274
 H        -2.518751        -2.436012         1.813764
 H        -3.696126        -1.165903         2.239527
 H        -1.253493        -0.136003         2.189944
 H        -2.863362         0.969360        -0.064131
 H        -0.820587         1.784693        -1.020551
 H        -0.568403         1.838953         0.905958
 H         0.872473        -2.631689         0.751782
 H        -0.687086        -3.437681         0.306588
 H         0.258903        -2.687455        -1.032315
