19
Iteration:  1610
 C        -2.882714        -1.470703         1.491324
 C        -1.689386        -0.647599         1.210174
 C        -1.970123         0.259191         0.071937
 C        -0.767639         1.205770         0.002021
 C         0.310555         0.024205         0.018930
 O         1.545455         0.146027         0.023543
 C        -0.581654        -1.172802         0.155728
 C        -0.283870        -2.679170         0.084544
 O        -1.677033        -0.839487        -0.907050
 H        -2.842162        -2.252744         2.247639
 H        -3.734360        -0.824717         1.743443
 H        -3.294055        -1.943187         0.592694
 H        -1.220985        -0.283256         2.097014
 H        -3.001018         0.666964        -0.038388
 H        -0.803827         1.642456        -1.013483
 H        -0.652109         2.057495         0.781851
 H         0.688958        -2.983620         0.376233
 H        -0.932031        -3.327766         0.628639
 H        -0.486701        -2.918770        -0.969429
