19
Iteration:  4612
 C        -2.973663        -1.506339         1.502001
 C        -1.756320        -0.675762         1.263183
 C        -1.917329         0.315427         0.085272
 C        -0.653019         1.196783        -0.175767
 C         0.276619        -0.020870         0.084417
 O         1.491858         0.085787         0.066378
 C        -0.697800        -1.241046         0.159051
 C        -0.173091        -2.592939         0.044217
 O        -1.639856        -0.746761        -0.904720
 H        -3.617156        -1.701646         0.614880
 H        -2.864674        -2.603558         1.770059
 H        -3.588364        -0.903480         2.217761
 H        -1.381706        -0.374100         2.245246
 H        -2.950950         0.812087         0.079279
 H        -0.626455         1.442562        -1.197954
 H        -0.446304         1.996127         0.537974
 H         0.036622        -2.926106         1.051198
 H        -0.976055        -3.402685        -0.246802
 H         0.752169        -2.502000        -0.480980
