19
Iteration:    43
 C        -2.937709        -1.566245         1.545067
 C        -1.708770        -0.669853         1.294877
 C        -1.990405         0.261291         0.028511
 C        -0.722793         1.131414        -0.261264
 C         0.276094         0.075032        -0.021623
 O         1.493368         0.158162         0.267739
 C        -0.608467        -1.182343         0.169200
 C        -0.196419        -2.579098         0.032675
 O        -1.645774        -0.795962        -0.926564
 H        -2.714339        -2.476780         2.126099
 H        -3.681271        -1.136698         2.230019
 H        -3.455068        -1.860018         0.618672
 H        -1.287277        -0.251416         2.189250
 H        -2.975777         0.670066        -0.186372
 H        -0.759551         1.410949        -1.365039
 H        -0.529557         1.894942         0.358547
 H         0.883596        -2.662709         0.346240
 H        -0.930048        -3.203767         0.589261
 H        -0.216718        -2.854976        -1.081076
