19
Iteration:  4463
 C        -2.999689        -1.520740         1.534772
 C        -1.766616        -0.716522         1.201210
 C        -1.990938         0.335908         0.068274
 C        -0.670672         1.167880        -0.193062
 C         0.292505         0.020451         0.076488
 O         1.524556         0.007801         0.134693
 C        -0.652028        -1.158325         0.126473
 C        -0.148845        -2.550891         0.054723
 O        -1.656876        -0.739327        -0.863474
 H        -3.560734        -1.601432         0.600287
 H        -2.765464        -2.521051         1.959320
 H        -3.665152        -1.051363         2.285675
 H        -1.415718        -0.370807         2.240776
 H        -2.996236         0.785542        -0.155334
 H        -0.483193         1.343682        -1.307008
 H        -0.490425         1.760230         0.642582
 H         0.874371        -2.445741         0.352348
 H        -0.816396        -3.355267         0.374537
 H        -0.096138        -2.808187        -1.027554
