19
Iteration:  4364
 C        -2.936378        -1.637057         1.543723
 C        -1.725032        -0.659934         1.253804
 C        -1.901919         0.310711         0.047598
 C        -0.654282         1.199304        -0.105074
 C         0.298812         0.069866         0.002495
 O         1.454696         0.054282        -0.021619
 C        -0.731354        -1.196824         0.226564
 C        -0.326279        -2.641163         0.160127
 O        -1.503376        -0.670697        -0.964168
 H        -3.266763        -2.224332         0.623463
 H        -2.610305        -2.440503         2.331690
 H        -3.827251        -0.999432         2.029691
 H        -1.263528        -0.202265         2.191733
 H        -2.909208         0.795980        -0.113221
 H        -0.939487         1.714857        -1.115295
 H        -0.665594         1.843945         0.763967
 H        -0.167496        -3.166645         1.128016
 H        -1.188126        -3.179287        -0.415523
 H         0.573438        -2.650740        -0.481808
