19
Iteration:  3276
 C        -2.950267        -1.449761         1.582203
 C        -1.819325        -0.563586         1.219990
 C        -1.963044         0.273237        -0.016599
 C        -0.777972         1.168485        -0.102586
 C         0.299286        -0.008766         0.063091
 O         1.472789        -0.048403         0.137260
 C        -0.650783        -1.203457         0.114164
 C        -0.090606        -2.567670        -0.005378
 O        -1.621661        -0.797461        -0.883933
 H        -3.316274        -2.007586         0.677805
 H        -2.573358        -2.021365         2.436934
 H        -3.846491        -0.781742         1.795116
 H        -1.406938        -0.264650         2.196151
 H        -2.924902         0.679989        -0.256890
 H        -0.638138         1.841775        -0.962715
 H        -0.789020         1.935422         0.687533
 H         0.829585        -2.526926         0.650293
 H        -0.642347        -3.450539         0.221284
 H         0.351295        -2.696556        -1.029122
