19
Iteration:  2058
 C        -2.797776        -1.664798         1.719488
 C        -1.799791        -0.707410         1.167494
 C        -2.068352         0.335505         0.035759
 C        -0.688443         1.282503        -0.037270
 C         0.313485         0.005991         0.050241
 O         1.550705        -0.127458         0.007870
 C        -0.748331        -1.109013         0.176536
 C        -0.168273        -2.527961        -0.018978
 O        -1.693313        -0.640084        -0.976632
 H        -3.889174        -1.309315         1.724439
 H        -2.796869        -2.651492         1.162432
 H        -2.694828        -1.899100         2.808114
 H        -1.337609        -0.159198         1.965708
 H        -2.921859         0.881605        -0.075186
 H        -0.609927         1.730269        -0.978089
 H        -0.667222         1.979323         0.806935
 H         0.270592        -2.910112         0.954163
 H        -0.989606        -3.207344        -0.444084
 H         0.637330        -2.588871        -0.823353
