19
Iteration:  3892charge 0 multiplicity 1
 C        -2.852972        -1.560801         1.639699
 C        -1.706419        -0.605659         1.217383
 C        -1.969036         0.315634        -0.045915
 C        -0.670980         1.188316        -0.158818
 C         0.265497         0.055663         0.035704
 O         1.425984        -0.093567         0.252966
 C        -0.707272        -1.189551         0.061881
 C        -0.126811        -2.522345        -0.000757
 O        -1.743091        -0.758296        -0.945978
 H        -3.351129        -2.177178         0.866025
 H        -2.313559        -2.262125         2.284060
 H        -3.441437        -1.010796         2.340059
 H        -1.406864         0.015179         1.975598
 H        -2.909224         0.880641        -0.206677
 H        -0.688263         1.796661        -1.089273
 H        -0.390177         1.849911         0.735043
 H         0.298597        -2.799061         0.956477
 H        -0.815416        -3.343870        -0.138614
 H         0.530220        -2.536861        -0.898466
