19
Iteration:  3152
 C        -3.010208        -1.517612         1.534895
 C        -1.782666        -0.704035         1.201313
 C        -2.004650         0.370936        -0.040294
 C        -0.731586         1.187210        -0.089550
 C         0.262994         0.005753         0.080253
 O         1.510992        -0.019838         0.038816
 C        -0.705140        -1.162427         0.171723
 C        -0.066617        -2.543701         0.141887
 O        -1.603315        -0.795204        -0.899124
 H        -3.460720        -1.783912         0.574471
 H        -2.787583        -2.456209         2.108529
 H        -3.594920        -0.846424         2.156570
 H        -1.467249        -0.267576         2.163821
 H        -2.906199         0.863474        -0.396148
 H        -0.400064         1.622158        -1.132359
 H        -0.522549         2.030832         0.722587
 H         0.929604        -2.648428         0.425085
 H        -0.596902        -3.296558         0.733324
 H        -0.032838        -2.851521        -0.867620
