19
Iteration:  4713
 C        -3.026890        -1.643220         1.508958
 C        -1.735154        -0.634176         1.253413
 C        -1.997733         0.380869         0.057094
 C        -0.643969         1.251984        -0.055393
 C         0.270745         0.002305         0.046089
 O         1.509293        -0.028662         0.018005
 C        -0.703832        -1.177669         0.176426
 C        -0.157411        -2.562431         0.086123
 O        -1.582874        -0.767638        -0.957921
 H        -3.187083        -2.381592         0.725537
 H        -3.056788        -2.045817         2.551336
 H        -3.923436        -1.001079         1.528278
 H        -1.510430        -0.124334         2.185981
 H        -2.970122         0.744356        -0.275013
 H        -0.580996         1.963653        -0.855973
 H        -0.300960         1.943660         0.707809
 H         0.676453        -2.679952         0.805426
 H        -0.809560        -3.295166         0.535312
 H         0.006114        -2.835392        -1.020496
