19
Iteration:  1904charge 0 multiplicity 1
 C        -2.874958        -1.515564         1.542907
 C        -1.782042        -0.571041         1.231442
 C        -1.957901         0.322674         0.060112
 C        -0.760131         1.190806        -0.008312
 C         0.280692         0.051484         0.015875
 O         1.474955         0.096349        -0.001779
 C        -0.702224        -1.189047         0.159619
 C        -0.154167        -2.762718         0.126585
 O        -1.616693        -0.778206        -0.963250
 H        -2.703153        -2.560313         1.801013
 H        -3.554947        -1.151647         2.375019
 H        -3.488858        -1.484242         0.612903
 H        -1.088775        -0.311747         2.032983
 H        -2.869446         0.684470        -0.134049
 H        -0.642287         1.627058        -0.932084
 H        -0.571402         2.007409         0.693620
 H         0.923455        -2.874311         0.437820
 H        -0.855595        -3.326094         0.764916
 H        -0.242424        -3.053685        -1.026880
