19
Iteration:  1479
 C        -3.006814        -1.559249         1.638323
 C        -1.693330        -0.776737         1.223846
 C        -1.927269         0.349884         0.054357
 C        -0.686293         1.192127        -0.182940
 C         0.331129         0.050301         0.003918
 O         1.549754         0.272533         0.031683
 C        -0.681429        -1.230904         0.213104
 C        -0.319408        -2.692863         0.042482
 O        -1.627731        -0.783259        -0.931797
 H        -2.471575        -2.487395         1.848089
 H        -3.508410        -1.131751         2.485966
 H        -3.643935        -1.856311         0.835117
 H        -1.246871        -0.438453         2.132286
 H        -2.971079         0.789481         0.041088
 H        -0.461440         1.536885        -1.189497
 H        -0.540266         1.847395         0.693795
 H        -0.136031        -2.962043         1.022084
 H        -1.282655        -3.109464        -0.174909
 H         0.546199        -3.035714        -0.488863
