19
Iteration:  4710charge 0 multiplicity 1
 C        -3.008854        -1.656403         1.518689
 C        -1.777489        -0.637180         1.242371
 C        -1.999207         0.403551         0.048942
 C        -0.637241         1.278045        -0.058644
 C         0.255905        -0.002198         0.062271
 O         1.517483        -0.035296         0.002521
 C        -0.701848        -1.164554         0.195461
 C        -0.151196        -2.574773         0.077217
 O        -1.572193        -0.759959        -0.956761
 H        -3.225593        -2.478364         0.702766
 H        -3.065215        -2.137643         2.615383
 H        -3.951035        -0.990055         1.529847
 H        -1.408661        -0.136837         2.260452
 H        -3.005193         0.769078        -0.368594
 H        -0.588543         1.874716        -0.980334
 H        -0.259643         1.896446         0.780606
 H         0.649214        -2.701538         0.772952
 H        -0.839153        -3.356778         0.586721
 H         0.043559        -2.810733        -0.946273
