19
Iteration:   151charge 0 multiplicity 1
 C        -2.933561        -1.648244         1.434186
 C        -1.682059        -0.643061         1.190603
 C        -1.899061         0.371098         0.126035
 C        -0.755331         1.187796        -0.290364
 C         0.324915         0.052024        -0.008228
 O         1.501276         0.186220         0.176126
 C        -0.761782        -1.232439         0.176668
 C        -0.188234        -2.579270         0.156016
 O        -1.662876        -0.875725        -0.849217
 H        -2.591329        -2.480310         2.091067
 H        -3.717559        -1.009321         1.884848
 H        -3.412974        -2.060376         0.513517
 H        -1.290751        -0.417329         2.190835
 H        -2.876413         0.812773         0.136241
 H        -0.827522         1.744272        -1.385037
 H        -0.500345         2.122938         0.253735
 H         0.219749        -2.873773         1.154974
 H        -1.042149        -3.269271        -0.091644
 H         0.598388        -2.668574        -0.666365
