19
Iteration:  4527
 C        -2.828409        -1.601318         1.680595
 C        -1.724027        -0.658901         1.136393
 C        -2.008445         0.342360         0.002751
 C        -0.715944         1.189918        -0.092548
 C         0.312439         0.044851         0.014299
 O         1.498391        -0.018103         0.270646
 C        -0.717341        -1.170943        -0.005468
 C        -0.265094        -2.617007         0.102017
 O        -1.644343        -0.695419        -1.051672
 H        -3.198510        -2.199428         0.887226
 H        -2.556111        -2.111369         2.597439
 H        -3.712171        -1.146130         2.063603
 H        -1.133778        -0.272557         2.021690
 H        -3.057522         0.763602        -0.097149
 H        -0.643988         1.861237        -1.071141
 H        -0.344421         2.172809         0.624112
 H         0.680037        -2.578448         0.641077
 H        -1.064883        -3.443913         0.414212
 H        -0.041787        -3.014440        -0.918640
