19
Iteration:  3947
 C        -2.924147        -1.672458         1.639886
 C        -1.722095        -0.642386         1.240801
 C        -2.007746         0.389902        -0.014017
 C        -0.700866         1.203066        -0.112373
 C         0.328252        -0.057018         0.059769
 O         1.499221         0.098662         0.149469
 C        -0.729865        -1.180772         0.076860
 C        -0.274014        -2.637909         0.044446
 O        -1.581404        -0.709958        -0.971868
 H        -3.106457        -2.468922         0.879066
 H        -2.419107        -2.082892         2.517672
 H        -3.705056        -0.956747         1.838373
 H        -1.298510        -0.221040         2.158412
 H        -2.966826         0.858023        -0.351433
 H        -0.730573         1.750570        -1.123306
 H        -0.288323         2.008027         0.604124
 H         0.620145        -2.784244         0.718504
 H        -1.188960        -3.108427         0.375585
 H        -0.004791        -3.077852        -0.957690
