19
Iteration:  3407charge 0 multiplicity 1
 C        -2.974472        -1.520079         1.631162
 C        -1.741035        -0.625044         1.241089
 C        -1.964473         0.331071        -0.062503
 C        -0.705023         1.274282        -0.021997
 C         0.265633         0.007887         0.077726
 O         1.457267        -0.045824         0.090924
 C        -0.730611        -1.144849         0.128919
 C        -0.096807        -2.574328         0.046968
 O        -1.628088        -0.856810        -1.017214
 H        -3.177874        -2.440914         1.046016
 H        -2.643525        -1.904609         2.607815
 H        -3.813874        -0.810246         1.834206
 H        -1.283974        -0.065069         2.073209
 H        -2.967496         0.632050        -0.310526
 H        -0.502043         1.647358        -1.099134
 H        -0.441220         1.928192         0.918669
 H         0.632694        -2.741049         0.843405
 H        -0.883099        -3.250651         0.048398
 H         0.401644        -2.583173        -0.916639
