19
Iteration:  3915charge 0 multiplicity 1
 C        -2.706251        -1.546793         1.580494
 C        -1.708514        -0.534471         1.214231
 C        -2.067437         0.341751        -0.086585
 C        -0.718404         1.254166        -0.060443
 C         0.269039        -0.030148         0.113345
 O         1.495105        -0.092330         0.214713
 C        -0.729184        -1.185494         0.062879
 C        -0.217469        -2.548709         0.026692
 O        -1.694310        -0.790811        -1.018508
 H        -2.983667        -2.432970         0.985958
 H        -2.388118        -2.016950         2.543237
 H        -3.615910        -1.170092         2.015216
 H        -1.258556        -0.029022         1.964863
 H        -3.068765         0.774678        -0.178957
 H        -0.743444         1.956709        -0.949877
 H        -0.619139         1.840749         0.910059
 H         0.355510        -2.813219         0.932374
 H        -0.990381        -3.284251         0.115979
 H         0.267202        -2.739377        -0.964851
