19
Iteration:  4476
 C        -2.978892        -1.533083         1.477837
 C        -1.772926        -0.575669         1.253419
 C        -1.922456         0.332887         0.034605
 C        -0.685873         1.167471        -0.136779
 C         0.330837         0.017671         0.010549
 O         1.490450         0.042290         0.179954
 C        -0.708608        -1.206120         0.215157
 C        -0.162156        -2.602833        -0.054748
 O        -1.649429        -0.822516        -0.862182
 H        -3.651976        -1.830487         0.618410
 H        -2.552328        -2.511118         1.881742
 H        -3.606024        -1.039584         2.330511
 H        -1.287505        -0.123155         2.165681
 H        -2.862944         0.864636        -0.148080
 H        -0.851238         1.836899        -1.031926
 H        -0.457825         2.009184         0.405902
 H         0.808644        -2.869714         0.398040
 H        -0.761540        -3.223343         0.585635
 H        -0.200661        -2.873531        -1.158946
