19
Iteration:   202
 C        -2.923859        -1.593167         1.615832
 C        -1.784124        -0.678224         1.147723
 C        -2.017466         0.325476        -0.027455
 C        -0.759207         1.269453        -0.041527
 C         0.213131         0.057839         0.086903
 O         1.416959         0.039306        -0.030981
 C        -0.772166        -1.211308         0.216334
 C        -0.144346        -2.553543         0.212892
 O        -1.409770        -0.830879        -1.050020
 H        -2.461708        -2.474592         2.108269
 H        -3.527425        -1.041674         2.347004
 H        -3.529632        -1.908675         0.748086
 H        -1.306883        -0.320802         2.109615
 H        -3.002985         0.721889        -0.376298
 H        -0.597319         1.841031        -0.891959
 H        -0.497115         1.936432         0.868282
 H         0.426633        -2.675752         1.128111
 H        -0.828961        -3.322099        -0.061154
 H         0.695779        -2.528900        -0.496589
