19
Iteration:   617
 C        -2.811506        -1.567898         1.816370
 C        -1.807710        -0.598019         1.135483
 C        -2.032190         0.293666        -0.134638
 C        -0.782250         1.129455        -0.117932
 C         0.241906        -0.048017         0.059778
 O         1.438763        -0.082305         0.195008
 C        -0.712526        -1.093801         0.107198
 C        -0.117105        -2.459333         0.077094
 O        -1.536157        -0.769000        -1.054079
 H        -2.317043        -2.123459         2.644018
 H        -3.683798        -0.968657         2.192516
 H        -3.180091        -2.258921         1.047562
 H        -1.441745         0.042727         1.951292
 H        -3.079758         0.696422        -0.473214
 H        -0.570424         1.433294        -1.106352
 H        -0.677905         2.030522         0.685216
 H         0.181464        -2.711480         1.098748
 H        -0.922052        -3.140592        -0.308050
 H         0.735907        -2.295885        -0.585409
