19
Iteration:  3583
 C        -2.854637        -1.450483         1.558338
 C        -1.670757        -0.652286         1.228752
 C        -1.995941         0.353482        -0.006468
 C        -0.744602         1.123504        -0.144999
 C         0.284286         0.018768         0.088133
 O         1.529896         0.066836         0.213987
 C        -0.685338        -1.219100         0.105684
 C        -0.168600        -2.611302        -0.071718
 O        -1.751665        -0.863662        -0.842592
 H        -3.050590        -2.100445         0.732801
 H        -2.930818        -1.924000         2.518773
 H        -3.789098        -0.855147         1.489671
 H        -1.297290         0.021174         2.133151
 H        -2.984853         0.815668        -0.216053
 H        -0.518265         1.563428        -1.198451
 H        -0.298461         2.008983         0.562745
 H         0.473293        -2.803497         0.741850
 H        -1.039738        -3.191628        -0.009853
 H         0.240731        -2.581519        -1.054579
