19
Iteration:  2405
 C        -3.014943        -1.464723         1.401747
 C        -1.676566        -0.705975         1.293967
 C        -1.849058         0.299396         0.040624
 C        -0.764004         1.210581        -0.008736
 C         0.287894         0.053073         0.048949
 O         1.442328         0.155272        -0.078377
 C        -0.652500        -1.277034         0.262083
 C        -0.176350        -2.686060         0.124879
 O        -1.598828        -0.799651        -0.920138
 H        -3.204313        -2.351807         0.844682
 H        -3.106517        -1.718232         2.425184
 H        -3.814539        -0.761823         1.283781
 H        -1.297994        -0.212270         2.128658
 H        -2.899844         0.681692        -0.056958
 H        -0.575742         1.688316        -0.944097
 H        -0.876156         1.962724         0.819474
 H         0.631038        -2.938037         0.792365
 H        -1.004821        -3.413146         0.352567
 H         0.036171        -2.815549        -0.909324
