19
Iteration:   869charge 0 multiplicity 1
 C        -2.924972        -1.677266         1.529497
 C        -1.792762        -0.604362         1.189096
 C        -1.984141         0.313934         0.003584
 C        -0.715999         1.219801        -0.116817
 C         0.295720         0.001383        -0.030757
 O         1.542981        -0.051574         0.046069
 C        -0.693380        -1.089509         0.105485
 C        -0.038060        -2.584916         0.262670
 O        -1.770159        -0.682370        -0.906284
 H        -2.534517        -2.680772         1.811740
 H        -3.690568        -1.357321         2.326692
 H        -3.655502        -1.793605         0.615154
 H        -1.223690        -0.250114         2.131326
 H        -2.998568         0.811163        -0.168556
 H        -0.771019         1.666547        -1.023640
 H        -0.523916         2.131366         0.588318
 H         0.091992        -2.914301         1.333955
 H        -0.582454        -3.296299        -0.324355
 H         0.993531        -2.558207        -0.119061
