19
Iteration:  1719charge 0 multiplicity 1
 C        -2.835978        -1.606259         1.624357
 C        -1.625662        -0.643569         1.191718
 C        -2.002601         0.364658         0.020595
 C        -0.677150         1.095893        -0.151480
 C         0.279807        -0.016678         0.000468
 O         1.514893         0.114314         0.148435
 C        -0.818682        -1.187925         0.138005
 C        -0.226360        -2.593504         0.054722
 O        -1.717764        -0.721127        -0.934574
 H        -2.536542        -2.184740         2.482224
 H        -3.672543        -0.997832         1.997911
 H        -3.147926        -2.189019         0.743515
 H        -0.998335        -0.313542         2.070753
 H        -2.919015         0.912437        -0.145956
 H        -0.731749         1.485766        -1.149564
 H        -0.517697         1.946685         0.522171
 H         0.087604        -2.953980         1.034649
 H        -0.961269        -3.283691        -0.312499
 H         0.748879        -2.698202        -0.480384
