19
Iteration:  2747charge 0 multiplicity 1
 C        -2.764261        -1.616064         1.544442
 C        -1.722161        -0.546711         1.154020
 C        -2.058038         0.401981        -0.052485
 C        -0.734228         1.225828        -0.172114
 C         0.299066        -0.021218         0.096590
 O         1.481939        -0.129346         0.200072
 C        -0.719167        -1.160067         0.096268
 C        -0.136745        -2.532907         0.195109
 O        -1.711511        -0.740700        -0.953892
 H        -2.982084        -2.315878         0.746125
 H        -2.410921        -2.236178         2.377048
 H        -3.799842        -1.363989         1.767498
 H        -1.390718         0.016160         2.043816
 H        -3.079155         0.852481        -0.203471
 H        -0.452244         1.752989        -1.116802
 H        -0.580453         1.910392         0.621966
 H        -0.059739        -3.072266         1.177656
 H        -0.935547        -3.137052        -0.317469
 H         0.618812        -2.534689        -0.649280
