19
Iteration:  4478
 C        -2.966984        -1.535413         1.474825
 C        -1.752699        -0.554437         1.255163
 C        -1.932579         0.329605         0.032356
 C        -0.678962         1.190869        -0.133272
 C         0.328408         0.001811         0.003327
 O         1.490287         0.050065         0.186483
 C        -0.715043        -1.213436         0.224146
 C        -0.166712        -2.612124        -0.056814
 O        -1.651332        -0.833600        -0.868042
 H        -3.641314        -1.818866         0.600242
 H        -2.562703        -2.505512         1.910099
 H        -3.622383        -1.083367         2.329408
 H        -1.329300        -0.089964         2.129912
 H        -2.834489         0.871219        -0.174419
 H        -0.857950         1.786324        -1.024786
 H        -0.506856         2.080687         0.506104
 H         0.854257        -2.858640         0.378521
 H        -0.821060        -3.278139         0.523470
 H        -0.253529        -2.889487        -1.138516
