19
Iteration:   554
 C        -2.979342        -1.566634         1.361038
 C        -1.733065        -0.723696         1.277122
 C        -1.946473         0.291634         0.139467
 C        -0.774828         1.201258        -0.255466
 C         0.360565         0.053353         0.030736
 O         1.555072         0.152007        -0.034994
 C        -0.636627        -1.230710         0.247761
 C        -0.249840        -2.599132         0.225421
 O        -1.614362        -0.748595        -0.827660
 H        -2.991990        -2.100177         2.283364
 H        -3.886344        -0.953757         1.305004
 H        -2.985129        -2.334811         0.631975
 H        -1.485613        -0.404946         2.292181
 H        -3.062203         0.575344         0.085942
 H        -0.842476         1.442418        -1.326207
 H        -0.655058         2.171718         0.279319
 H         0.086751        -2.828392         1.263468
 H        -1.021523        -3.318295        -0.117955
 H         0.547221        -2.847870        -0.479662
