19
Iteration:   766
 C        -2.843031        -1.455359         1.532514
 C        -1.746899        -0.593987         1.150576
 C        -2.003005         0.349702        -0.081247
 C        -0.871125         1.222857         0.071873
 C         0.260854        -0.039782         0.138313
 O         1.444649        -0.058731         0.006734
 C        -0.773555        -1.217500         0.149561
 C        -0.003824        -2.624972         0.168568
 O        -1.591064        -0.763234        -1.009700
 H        -2.465293        -1.752330         2.544680
 H        -3.871756        -1.128225         1.564234
 H        -2.749300        -2.381499         0.959325
 H        -1.443347         0.050536         1.994587
 H        -2.976342         0.813848        -0.281910
 H        -0.734401         1.902200        -0.913016
 H        -0.699087         1.720612         1.030650
 H         0.788113        -2.662181         0.903625
 H        -0.825699        -3.394171         0.299658
 H         0.313668        -2.750678        -0.897392
