19
Iteration:  1995
 C        -2.818208        -1.563406         1.642539
 C        -1.676016        -0.628139         1.244982
 C        -1.955898         0.290600         0.085227
 C        -0.639097         1.199762        -0.156723
 C         0.332270         0.072381         0.056407
 O         1.492570         0.123608         0.173718
 C        -0.668098        -1.212428        -0.021414
 C        -0.302920        -2.609185        -0.097475
 O        -1.773841        -0.853645        -0.852276
 H        -3.304287        -1.250362         2.568723
 H        -3.583479        -1.349925         0.921529
 H        -2.481411        -2.588055         1.591397
 H        -1.067489        -0.279408         2.134478
 H        -3.024791         0.777954        -0.015284
 H        -0.656213         1.754354        -1.137025
 H        -0.647721         1.988439         0.611926
 H        -0.145146        -2.961880         0.957370
 H        -1.205304        -3.169491        -0.455159
 H         0.582800        -2.873882        -0.635193
