19
Iteration:   835
 C        -2.868520        -1.563807         1.353851
 C        -1.695568        -0.513088         1.258535
 C        -1.968722         0.293915         0.063825
 C        -0.697657         1.145533        -0.081480
 C         0.231981         0.024505         0.116413
 O         1.423306         0.099866        -0.072465
 C        -0.664526        -1.180026         0.248417
 C        -0.190531        -2.589276         0.179130
 O        -1.619288        -0.858146        -0.857349
 H        -2.521268        -2.566099         1.736647
 H        -3.611967        -1.108568         2.087618
 H        -3.346775        -1.641687         0.325998
 H        -1.105967        -0.162881         2.175874
 H        -2.996681         0.656130        -0.324880
 H        -0.706044         1.372194        -1.089682
 H        -0.611640         2.007063         0.686549
 H        -0.214601        -3.148865         1.148021
 H        -1.017927        -3.002583        -0.426607
 H         0.742369        -2.720988        -0.377926
