19
Iteration:  4891
 C        -3.042617        -1.563233         1.522458
 C        -1.751453        -0.552755         1.259040
 C        -2.021651         0.354751        -0.011958
 C        -0.667803         1.161337        -0.097322
 C         0.335428        -0.031642         0.056388
 O         1.526901         0.008964         0.068719
 C        -0.683221        -1.163562         0.218779
 C        -0.178716        -2.550344        -0.028299
 O        -1.619440        -0.822002        -0.812913
 H        -2.979257        -2.298732         0.684065
 H        -2.842404        -2.227521         2.385384
 H        -3.994469        -1.004170         1.429299
 H        -1.428870        -0.020952         2.194869
 H        -2.965275         0.844613        -0.241835
 H        -0.780493         1.691705        -1.092669
 H        -0.217321         1.786301         0.760089
 H         0.745953        -2.833348         0.620247
 H        -1.055815        -3.302652        -0.116273
 H         0.350237        -2.520774        -1.011164
