19
Iteration:  1749charge 0 multiplicity 1
 C        -2.888152        -1.595611         1.614642
 C        -1.654943        -0.566858         1.264739
 C        -2.015040         0.318247        -0.035185
 C        -0.761423         1.224699        -0.160285
 C         0.338484         0.064914         0.030685
 O         1.511114         0.120152         0.112130
 C        -0.570944        -1.155608         0.141966
 C        -0.307663        -2.728723        -0.074936
 O        -1.625425        -0.821499        -0.783194
 H        -2.686271        -1.938919         2.669124
 H        -3.754383        -0.903029         1.572528
 H        -3.065170        -2.473094         0.943573
 H        -1.154152        -0.042606         2.181076
 H        -2.985047         0.661524        -0.228798
 H        -0.865706         1.611917        -1.201587
 H        -0.750580         1.956622         0.599387
 H        -0.425760        -3.225244         0.939414
 H        -1.329084        -3.013373        -0.523973
 H         0.402424        -3.178214        -0.861551
