19
Iteration:  1014charge 0 multiplicity 1
 C        -2.783396        -1.567311         1.522092
 C        -1.696370        -0.489978         1.127236
 C        -2.023099         0.393978        -0.128998
 C        -0.655313         1.211839        -0.014345
 C         0.227379         0.025207         0.019808
 O         1.381865        -0.102234         0.231097
 C        -0.735432        -1.195762         0.120223
 C        -0.060523        -2.527241         0.088485
 O        -1.773467        -0.872841        -0.925773
 H        -2.253576        -2.495935         1.881364
 H        -3.410964        -1.261261         2.395002
 H        -3.388482        -2.008497         0.708764
 H        -1.236404        -0.152138         2.118834
 H        -2.909554         0.929623        -0.090875
 H        -0.415993         1.816650        -0.946520
 H        -0.507981         1.893810         0.722836
 H         0.968307        -2.308279         0.093015
 H        -0.357143        -3.063788         1.016384
 H        -0.284380        -3.001381        -0.873281
