19
Iteration:  3254charge 0 multiplicity 1
 C        -2.896179        -1.498578         1.597567
 C        -1.794152        -0.588300         1.163970
 C        -2.043419         0.322985        -0.081118
 C        -0.649111         1.202423         0.029541
 C         0.268556        -0.002125         0.153829
 O         1.419308        -0.052381         0.064112
 C        -0.726752        -1.134723         0.209940
 C        -0.055003        -2.556637         0.067276
 O        -1.655231        -0.878191        -1.028676
 H        -3.159577        -2.188772         0.744710
 H        -2.563150        -1.951888         2.538859
 H        -3.800216        -0.820876         1.656507
 H        -1.226886        -0.083636         2.017709
 H        -2.835158         0.836283        -0.537331
 H        -0.482891         1.999285        -0.716573
 H        -0.601704         1.878293         0.906232
 H         1.009455        -2.560458         0.434070
 H        -0.561672        -3.422633         0.459512
 H        -0.028070        -2.783804        -1.038067
