19
Iteration:  1170charge 0 multiplicity 1
 C        -2.899986        -1.635787         1.591904
 C        -1.761342        -0.589027         1.147746
 C        -1.927904         0.321379        -0.042129
 C        -0.669592         1.261729         0.037709
 C         0.274036         0.015712         0.026713
 O         1.492160        -0.028409        -0.016445
 C        -0.728818        -1.180549         0.145816
 C        -0.138399        -2.495007         0.148201
 O        -1.711155        -0.806641        -0.948921
 H        -2.392964        -2.564722         1.862194
 H        -3.585375        -1.271022         2.361131
 H        -3.664938        -1.881089         0.820853
 H        -1.353678         0.008596         2.024808
 H        -2.992265         0.672368        -0.315540
 H        -0.467716         1.906161        -0.886352
 H        -0.647187         1.670376         1.048024
 H         0.091930        -2.787555         1.211318
 H        -0.834329        -3.184411        -0.263419
 H         0.803000        -2.627932        -0.371266
