19
Iteration:  4446charge 0 multiplicity 1
 C        -2.983910        -1.539203         1.518572
 C        -1.708957        -0.687603         1.215397
 C        -1.951987         0.348606         0.031664
 C        -0.695226         1.188117        -0.048468
 C         0.254224         0.003010         0.108717
 O         1.520419        -0.054229         0.076025
 C        -0.773348        -1.212842         0.147491
 C        -0.065674        -2.535168         0.087344
 O        -1.700503        -0.712665        -0.988195
 H        -3.557107        -1.696093         0.570056
 H        -2.770441        -2.482995         2.065690
 H        -3.591897        -0.852338         2.194463
 H        -1.160459        -0.326122         2.046903
 H        -2.932470         0.769448        -0.009940
 H        -0.713896         1.371936        -1.111881
 H        -0.506039         2.257865         0.472412
 H         0.847786        -2.446634         0.778865
 H        -0.721287        -3.303156         0.504856
 H         0.312990        -2.841835        -0.920749
