19
Iteration:  1416charge 0 multiplicity 1
 C        -2.805196        -1.620456         1.627783
 C        -1.794239        -0.600484         1.193043
 C        -2.043990         0.451844        -0.028622
 C        -0.662394         1.202400        -0.015395
 C         0.239673         0.004490        -0.034242
 O         1.481944        -0.153955         0.111136
 C        -0.778438        -1.159570         0.096782
 C        -0.018546        -2.483066         0.080368
 O        -1.769954        -0.775825        -0.980927
 H        -2.489241        -2.120404         2.530625
 H        -3.810283        -1.348502         1.940221
 H        -2.843607        -2.349475         0.815070
 H        -1.353912        -0.074172         2.122698
 H        -3.069755         1.039929        -0.118691
 H        -0.525608         1.716369        -0.911656
 H        -0.334589         1.875498         0.774453
 H         0.635194        -2.366360         0.988495
 H        -0.596669        -3.383089         0.315352
 H         0.573012        -2.697739        -0.858426
