19
Iteration:    65
 C        -2.847479        -1.554530         1.718376
 C        -1.747416        -0.722003         1.051576
 C        -1.962921         0.346178        -0.027612
 C        -0.808969         1.262353        -0.188578
 C         0.233011         0.035550         0.154206
 O         1.469856         0.074706         0.261561
 C        -0.744373        -1.284556         0.076071
 C        -0.102101        -2.625124         0.086202
 O        -1.601343        -0.732150        -1.029811
 H        -2.560203        -2.290349         2.476269
 H        -3.500546        -0.871310         2.286565
 H        -3.520956        -1.996796         0.974195
 H        -1.166863        -0.224380         1.812924
 H        -2.957629         0.749258        -0.153731
 H        -0.670688         1.388790        -1.321335
 H        -0.731390         2.071374         0.390604
 H         0.962942        -2.510799         0.442382
 H        -0.791749        -3.293792         0.647087
 H         0.032667        -3.033659        -0.979059
