19
Iteration:  3004
 C        -2.884289        -1.504708         1.605222
 C        -1.730606        -0.547351         1.160358
 C        -2.041282         0.334195        -0.071481
 C        -0.736606         1.229281        -0.100237
 C         0.242917        -0.034596         0.066804
 O         1.477538        -0.062781         0.177287
 C        -0.655339        -1.195101         0.126521
 C        -0.112276        -2.578141         0.117565
 O        -1.682168        -0.830287        -0.997646
 H        -3.444423        -1.728320         0.717354
 H        -2.466763        -2.367988         2.066802
 H        -3.435334        -0.920490         2.330533
 H        -1.521926         0.123739         1.988018
 H        -2.981503         0.775291        -0.357261
 H        -0.598491         1.896787        -0.916620
 H        -0.493519         1.911698         0.828303
 H         0.385745        -2.762884         1.103545
 H        -0.624690        -3.505419        -0.126818
 H         0.689573        -2.621818        -0.642032
