19
Iteration:  2571
 C        -2.908100        -1.580387         1.631031
 C        -1.729460        -0.643784         1.151648
 C        -2.023886         0.353023        -0.041326
 C        -0.661206         1.255119        -0.073848
 C         0.267218         0.035337         0.083323
 O         1.496576        -0.002993         0.177689
 C        -0.683135        -1.207945         0.138024
 C        -0.170018        -2.595061         0.032325
 O        -1.674538        -0.776304        -1.012673
 H        -3.064800        -2.538831         1.160939
 H        -2.590888        -1.889280         2.602583
 H        -3.880835        -1.117046         1.808582
 H        -1.358092        -0.127056         2.053755
 H        -2.994295         0.704662        -0.256305
 H        -0.512444         1.770601        -1.121388
 H        -0.501290         2.023953         0.676813
 H         0.528925        -2.812341         0.934148
 H        -1.055765        -3.208175         0.055652
 H         0.408866        -2.771838        -0.886559
