19
Iteration:  3444charge 0 multiplicity 1
 C        -2.978722        -1.496973         1.418862
 C        -1.781570        -0.578863         1.274991
 C        -1.940789         0.329515         0.080840
 C        -0.707510         1.159057        -0.071706
 C         0.314570        -0.023199         0.007482
 O         1.485229         0.073782         0.010754
 C        -0.708634        -1.224102         0.234981
 C        -0.094268        -2.580946         0.089130
 O        -1.639770        -0.808641        -0.876553
 H        -3.329660        -1.962944         0.487062
 H        -3.057774        -2.197978         2.299183
 H        -3.886955        -0.843561         1.657841
 H        -1.386587        -0.373652         2.264040
 H        -3.029951         0.706166        -0.085134
 H        -0.583039         1.584301        -0.996071
 H        -0.356193         1.952552         0.534006
 H         0.944030        -2.773791         0.437468
 H        -0.721648        -3.473143         0.559138
 H        -0.123602        -2.909584        -0.991474
