19
Iteration:  4975
 C        -2.926501        -1.611219         1.371118
 C        -1.788270        -0.607098         1.180172
 C        -1.982064         0.350039        -0.045497
 C        -0.617717         1.185838         0.017093
 C         0.299968         0.023512         0.167565
 O         1.509270        -0.019924        -0.136210
 C        -0.724647        -1.163321         0.213462
 C        -0.196801        -2.559619         0.224881
 O        -1.633750        -0.748664        -0.894506
 H        -3.699393        -1.786416         0.585599
 H        -2.662331        -2.725652         1.697208
 H        -3.409057        -1.475929         2.401901
 H        -1.465865        -0.105103         2.169360
 H        -2.908535         0.932132        -0.063682
 H        -0.498937         1.821581        -0.878514
 H        -0.706591         1.908000         0.933701
 H         0.765032        -2.527053         0.770041
 H        -0.847161        -3.108150         0.837269
 H        -0.109698        -3.090561        -0.791717
