19
Iteration:  2941
 C        -2.967813        -1.508351         1.497595
 C        -1.763190        -0.591695         1.214311
 C        -1.904491         0.316006        -0.051492
 C        -0.691004         1.192959        -0.009381
 C         0.303391        -0.015164         0.014699
 O         1.503086         0.086328         0.043894
 C        -0.688580        -1.178508         0.218593
 C        -0.210148        -2.651298         0.116273
 O        -1.614028        -0.873646        -0.915624
 H        -3.120747        -2.314616         0.781853
 H        -2.960856        -2.012272         2.464345
 H        -3.935607        -0.936475         1.589369
 H        -1.466465         0.021987         2.053159
 H        -2.808125         0.917914        -0.404328
 H        -0.773133         1.891330        -0.891134
 H        -0.789125         1.896506         0.948662
 H         0.805157        -2.636431         0.417985
 H        -0.764806        -3.311338         0.647861
 H        -0.112888        -2.730784        -0.942636
