19
Iteration:   722charge 0 multiplicity 1
 C        -2.912712        -1.634004         1.510959
 C        -1.790633        -0.629444         1.205445
 C        -1.998722         0.358207         0.055165
 C        -0.680728         1.137393        -0.231597
 C         0.332144        -0.013419         0.053664
 O         1.543166         0.093939         0.200910
 C        -0.713776        -1.191510         0.239928
 C        -0.145905        -2.527629         0.088490
 O        -1.716767        -0.767316        -0.935466
 H        -2.565071        -2.500040         2.115147
 H        -3.775493        -1.149499         2.002535
 H        -3.343154        -1.972670         0.560408
 H        -1.279961        -0.335565         2.165423
 H        -2.934992         0.839515        -0.143463
 H        -0.740844         1.253073        -1.439590
 H        -0.497596         2.123326         0.148710
 H         0.890397        -2.420694         0.434481
 H        -0.682428        -3.367485         0.604382
 H        -0.139912        -2.725907        -1.024369
