19
Iteration:   322charge 0 multiplicity 1
 C        -2.869628        -1.576789         1.551739
 C        -1.722263        -0.621000         1.150937
 C        -1.922158         0.336557        -0.072315
 C        -0.726333         1.191559        -0.246040
 C         0.245547         0.072268         0.069648
 O         1.438687         0.129949         0.230758
 C        -0.640218        -1.212156         0.278310
 C        -0.175930        -2.638582         0.045533
 O        -1.698688        -0.847492        -0.878495
 H        -2.416198        -2.513920         1.925719
 H        -3.384167        -1.146685         2.403351
 H        -3.583063        -1.758723         0.724258
 H        -1.390007        -0.141477         2.118138
 H        -3.034751         0.664059        -0.329976
 H        -0.673774         1.420902        -1.264651
 H        -0.446487         2.210233         0.282831
 H         0.709973        -2.897844         0.694388
 H        -1.025201        -3.321173         0.156700
 H         0.362229        -2.693022        -0.946413
