19
Iteration:  2410charge 0 multiplicity 1
 C        -2.986300        -1.495716         1.445189
 C        -1.675102        -0.654357         1.253360
 C        -1.860342         0.311537        -0.005097
 C        -0.794936         1.246613         0.012168
 C         0.306124         0.055627         0.064664
 O         1.468758         0.135835        -0.078170
 C        -0.664449        -1.296717         0.271543
 C        -0.207640        -2.690648         0.125504
 O        -1.622640        -0.822976        -0.921268
 H        -3.120669        -2.327715         0.655985
 H        -3.295150        -1.962520         2.465154
 H        -3.818629        -0.736766         1.284997
 H        -1.272788        -0.167418         2.268865
 H        -2.859953         0.669284        -0.097814
 H        -0.542180         1.920197        -0.895462
 H        -0.740562         1.956160         0.825260
 H         0.726001        -2.841643         0.737295
 H        -1.006540        -3.353847         0.374195
 H         0.218477        -2.916107        -0.912984
