19
Iteration:  2694charge 0 multiplicity 1
 C        -2.977822        -1.447071         1.528706
 C        -1.752516        -0.569179         1.163820
 C        -1.957755         0.246232        -0.064490
 C        -0.790715         1.167495         0.022109
 C         0.293846         0.114335         0.089378
 O         1.491880         0.022629         0.048303
 C        -0.699983        -1.222559         0.185240
 C        -0.125229        -2.659612         0.111676
 O        -1.572208        -0.825469        -0.972766
 H        -3.816224        -1.492656         0.808295
 H        -2.807795        -2.541477         1.704904
 H        -3.401715        -1.155551         2.499491
 H        -1.419927        -0.158840         2.154834
 H        -2.891433         0.804705        -0.316125
 H        -0.642882         1.822847        -0.987813
 H        -0.588352         1.911232         0.892160
 H         0.690140        -2.659463         0.854074
 H        -0.990588        -3.377167         0.267597
 H         0.508904        -2.904221        -0.802313
