19
Iteration:   392charge 0 multiplicity 1
 C        -2.783080        -1.536146         1.774256
 C        -1.702125        -0.615267         1.181708
 C        -2.044629         0.289205        -0.079422
 C        -0.739538         1.103608        -0.178130
 C         0.236349        -0.043856         0.071613
 O         1.413164         0.100645         0.322037
 C        -0.750465        -1.215158         0.031610
 C        -0.111027        -2.614841         0.036043
 O        -1.637107        -0.692982        -1.088999
 H        -2.523027        -1.993854         2.749865
 H        -3.735333        -0.961342         1.992337
 H        -3.109317        -2.334975         1.089696
 H        -1.116918         0.017931         1.883196
 H        -2.922234         0.762764        -0.184417
 H        -0.655467         1.436894        -1.283546
 H        -0.551584         2.034675         0.276041
 H         0.484309        -2.641470         0.944559
 H        -0.929559        -3.347991         0.171748
 H         0.600684        -2.941435        -0.696006
