19
Iteration:   143
 C        -2.883818        -1.621791         1.451210
 C        -1.721496        -0.634189         1.233707
 C        -1.959021         0.353795         0.110544
 C        -0.765235         1.109342        -0.284002
 C         0.283038         0.021112         0.005950
 O         1.478669         0.146436         0.194812
 C        -0.726278        -1.210380         0.180135
 C        -0.179486        -2.557835         0.112482
 O        -1.608293        -0.767361        -0.885024
 H        -2.582061        -2.325049         2.205703
 H        -3.712222        -1.119910         1.970059
 H        -3.311158        -2.179834         0.623802
 H        -1.239079        -0.295786         2.137491
 H        -2.901723         0.883919        -0.067280
 H        -0.930037         1.245593        -1.398241
 H        -0.461064         1.970486         0.200204
 H         0.260170        -2.794033         1.111726
 H        -0.939202        -3.390668        -0.027191
 H         0.549290        -2.612108        -0.701570
