19
Iteration:   917
 C        -2.874199        -1.491420         1.650063
 C        -1.737827        -0.573573         1.215611
 C        -1.998622         0.267055        -0.054460
 C        -0.821810         1.211706        -0.002897
 C         0.252297         0.061484         0.065799
 O         1.436290        -0.045163         0.100411
 C        -0.632950        -1.159501         0.177844
 C        -0.113954        -2.637069        -0.045341
 O        -1.582090        -0.792421        -1.008149
 H        -2.517063        -2.177342         2.440575
 H        -3.704313        -0.925067         2.055103
 H        -3.273006        -2.126423         0.862909
 H        -1.355212        -0.034851         2.080120
 H        -2.914716         0.626231        -0.451334
 H        -0.646383         2.011527        -0.831693
 H        -0.825098         1.761685         0.867852
 H         0.344309        -2.795314         0.909706
 H        -1.045251        -3.235061         0.035475
 H         0.625782        -2.888860        -0.803759
