19
Iteration:  2799charge 0 multiplicity 1
 C        -2.930011        -1.483137         1.605089
 C        -1.727463        -0.734124         1.180981
 C        -1.962268         0.289709        -0.018870
 C        -0.679914         1.155732        -0.181662
 C         0.329263         0.056014         0.049460
 O         1.552074         0.163863         0.217698
 C        -0.680821        -1.273554         0.190999
 C        -0.247889        -2.711272        -0.009017
 O        -1.693385        -0.703213        -0.957679
 H        -3.335927        -2.253690         0.927136
 H        -2.708463        -2.010761         2.547967
 H        -3.774565        -0.749459         1.875320
 H        -1.507761        -0.163788         2.093989
 H        -2.857023         0.919479        -0.142351
 H        -0.694065         1.351814        -1.224965
 H        -0.579147         2.060790         0.408903
 H        -0.045863        -2.981585         1.091191
 H        -0.967383        -3.401392        -0.339348
 H         0.754782        -2.768897        -0.475978
