19
Iteration:    73charge 0 multiplicity 1
 C        -2.838569        -1.510296         1.756056
 C        -1.751340        -0.660984         1.133220
 C        -1.983633         0.303092        -0.117565
 C        -0.769861         1.193990        -0.098472
 C         0.239834         0.060668         0.140717
 O         1.407594         0.032148         0.265255
 C        -0.682608        -1.258183         0.054050
 C        -0.063506        -2.634639         0.081220
 O        -1.655737        -0.724908        -1.131808
 H        -2.383927        -2.275565         2.458417
 H        -3.587530        -0.943606         2.347845
 H        -3.370941        -2.130838         1.001285
 H        -1.212135        -0.136829         1.981577
 H        -2.947975         0.789102        -0.314434
 H        -0.543104         1.643166        -1.201132
 H        -0.829991         2.108836         0.604938
 H         0.895664        -2.569516         0.649746
 H        -0.622896        -3.369771         0.667954
 H        -0.005693        -2.992405        -1.001081
