19
Iteration:  3090charge 0 multiplicity 1
 C        -2.831429        -1.464544         1.620211
 C        -1.745382        -0.600398         1.200821
 C        -1.962823         0.322757        -0.098352
 C        -0.693601         1.173901        -0.040108
 C         0.306955         0.032673         0.051043
 O         1.487661         0.039613         0.205385
 C        -0.740967        -1.230697         0.079590
 C        -0.199740        -2.563679         0.080902
 O        -1.688803        -0.892871        -0.976556
 H        -3.118163        -2.164128         0.814365
 H        -2.425995        -2.108575         2.442436
 H        -3.829535        -1.128482         1.919127
 H        -1.342124         0.096963         1.977198
 H        -2.775511         0.849566        -0.512387
 H        -0.521712         1.628930        -0.984251
 H        -0.764762         1.911396         0.674027
 H         0.228893        -2.851520         1.124710
 H        -1.117094        -3.108940        -0.322772
 H         0.517603        -2.556579        -0.794567
