19
Iteration:  2166
 C        -2.851314        -1.604380         1.487026
 C        -1.748327        -0.550371         1.256729
 C        -2.040855         0.351553         0.040576
 C        -0.684004         1.194266         0.025282
 C         0.329451         0.019033         0.098268
 O         1.498444         0.039150        -0.079128
 C        -0.687745        -1.139696         0.174532
 C        -0.279129        -2.647977         0.036619
 O        -1.657595        -0.793496        -0.875250
 H        -3.234601        -1.578975         2.538522
 H        -3.667603        -1.475017         0.733163
 H        -2.356220        -2.574797         1.339620
 H        -1.261676        -0.202055         2.157776
 H        -2.938470         0.784685        -0.211453
 H        -0.474923         1.708110        -0.892339
 H        -0.439147         1.967879         0.797535
 H         0.777231        -2.714952         0.301583
 H        -0.730548        -3.313463         0.782993
 H        -0.357721        -3.035834        -0.981636
