19
Iteration:  3210charge 0 multiplicity 1
 C        -2.913270        -1.635720         1.443922
 C        -1.774020        -0.687750         1.209656
 C        -1.929939         0.326057         0.049461
 C        -0.735568         1.217095        -0.122650
 C         0.263270         0.083667         0.044287
 O         1.519386         0.008572         0.014200
 C        -0.668080        -1.163412         0.210269
 C        -0.237877        -2.639598         0.270939
 O        -1.592667        -0.680940        -0.979860
 H        -3.376141        -2.113169         0.529967
 H        -2.558968        -2.460275         2.125309
 H        -3.781641        -1.116392         1.950459
 H        -1.486202        -0.046749         2.079755
 H        -2.887228         0.743096         0.085448
 H        -0.511215         1.630625        -1.131459
 H        -0.591949         2.045952         0.586914
 H         0.882023        -2.631982         0.473465
 H        -0.829593        -3.257053         0.935311
 H        -0.505866        -3.074889        -0.733619
