19
Iteration:  4403charge 0 multiplicity 1
 C        -2.846573        -1.565830         1.540005
 C        -1.795806        -0.605529         1.209405
 C        -1.950465         0.315295        -0.030144
 C        -0.677015         1.175653         0.035607
 C         0.310085         0.039979         0.057812
 O         1.503531        -0.052447        -0.008634
 C        -0.720614        -1.145915         0.175718
 C        -0.254268        -2.519881         0.108470
 O        -1.675913        -0.806087        -0.958467
 H        -2.970173        -2.215918         0.695122
 H        -2.471933        -2.224157         2.302487
 H        -3.782840        -1.199934         1.803792
 H        -1.393837        -0.118936         2.077204
 H        -2.706348         0.988307        -0.391835
 H        -0.536285         1.883230        -0.712646
 H        -0.689186         1.873491         0.908734
 H         0.195072        -2.837801         1.059341
 H        -0.987218        -3.270503        -0.076259
 H         0.544181        -2.508527        -0.634157
