19
Iteration:  3224charge 0 multiplicity 1
 C        -2.937265        -1.642094         1.567092
 C        -1.803803        -0.618898         1.174527
 C        -2.098317         0.374774         0.009589
 C        -0.709297         1.223861        -0.050954
 C         0.298604        -0.010030         0.041973
 O         1.541553        -0.014556         0.028643
 C        -0.700409        -1.171284         0.154565
 C        -0.176174        -2.607456         0.204025
 O        -1.546516        -0.693018        -0.995039
 H        -3.189156        -2.164963         0.623790
 H        -2.654544        -2.298047         2.403431
 H        -3.824605        -1.009639         1.862267
 H        -1.322098        -0.353193         2.176104
 H        -3.015971         0.839171        -0.511109
 H        -0.795241         1.756746        -0.953574
 H        -0.489836         1.964057         0.663891
 H         0.966244        -2.705136         0.501513
 H        -0.682318        -3.178655         1.024975
 H        -0.160598        -3.150705        -0.817692
