19
Iteration:  4949
 C        -3.012631        -1.622831         1.474483
 C        -1.758735        -0.656376         1.149172
 C        -1.941359         0.369478         0.007291
 C        -0.685528         1.221043         0.127452
 C         0.276092        -0.008758        -0.052373
 O         1.478803        -0.048711        -0.091829
 C        -0.717569        -1.207747         0.163000
 C        -0.136207        -2.568231         0.287103
 O        -1.567218        -0.677533        -0.993474
 H        -3.625625        -1.804194         0.625931
 H        -2.837934        -2.516244         1.982766
 H        -3.583237        -1.091636         2.191652
 H        -1.454492        -0.185507         2.042379
 H        -2.893267         0.975360        -0.125893
 H        -0.836725         1.825095        -0.826639
 H        -0.517652         1.791875         1.129662
 H         0.827456        -2.393419         0.814935
 H        -0.694433        -3.298932         1.070311
 H        -0.023607        -3.040710        -0.703155
