19
Iteration:  1257charge 0 multiplicity 1
 C        -2.835614        -1.612838         1.550872
 C        -1.769062        -0.538921         1.236830
 C        -1.986320         0.397504         0.038588
 C        -0.678589         1.122963        -0.073955
 C         0.315957         0.056569         0.020096
 O         1.503539        -0.037881         0.076248
 C        -0.710994        -1.190186         0.225231
 C        -0.095088        -2.566733         0.037302
 O        -1.827991        -0.802897        -0.971760
 H        -2.513137        -2.170723         2.447741
 H        -3.854683        -1.194095         1.786417
 H        -2.887039        -2.253298         0.624321
 H        -1.344389        -0.057963         2.154576
 H        -2.902245         0.865340        -0.287289
 H        -0.611912         1.970111        -0.895329
 H        -0.523109         1.874861         0.767683
 H         0.075613        -2.989760         1.062102
 H        -0.734229        -3.190644        -0.520324
 H         0.825763        -2.463573        -0.506792
