19
Iteration:   166charge 0 multiplicity 1
 C        -2.928001        -1.565374         1.398222
 C        -1.685784        -0.731462         1.284649
 C        -2.003342         0.293162        -0.000160
 C        -0.662911         1.277351        -0.185735
 C         0.336859         0.150927        -0.018251
 O         1.504947         0.204379         0.116721
 C        -0.600448        -1.189702         0.156415
 C        -0.173218        -2.668701         0.188361
 O        -1.797260        -0.916590        -0.832002
 H        -2.832790        -2.529409         1.862832
 H        -3.704983        -1.105551         2.006538
 H        -3.331162        -1.761000         0.417248
 H        -1.215635        -0.310401         2.165824
 H        -2.984845         0.783342        -0.260076
 H        -0.593678         1.678376        -1.168794
 H        -0.495788         2.036800         0.580756
 H         0.076545        -2.955779         1.239536
 H        -1.012666        -3.397462        -0.032917
 H         0.604708        -2.872138        -0.518877
