19
Iteration:  1141
 C        -2.896447        -1.655075         1.532667
 C        -1.742612        -0.601779         1.204587
 C        -1.983233         0.378588         0.128733
 C        -0.760901         1.188945        -0.123147
 C         0.203854        -0.050608         0.087108
 O         1.413315        -0.162545        -0.006662
 C        -0.724865        -1.119197         0.171164
 C        -0.016383        -2.510060         0.165399
 O        -1.585850        -0.613342        -1.004755
 H        -2.418972        -2.442268         2.093598
 H        -3.802279        -1.388281         2.086545
 H        -3.258654        -2.076685         0.576412
 H        -1.390098        -0.092336         2.108083
 H        -3.048076         0.761785        -0.056459
 H        -0.624700         1.482206        -1.099972
 H        -0.622242         2.147472         0.595764
 H         0.550642        -2.511629         1.140378
 H        -0.856053        -3.257927         0.229558
 H         0.506670        -2.814750        -0.768512
