19
Iteration:  1623charge 0 multiplicity 1
 C        -2.982047        -1.526909         1.527547
 C        -1.694598        -0.700613         1.229579
 C        -1.951465         0.274714         0.034712
 C        -0.690772         1.141817        -0.109908
 C         0.300850         0.107620         0.031112
 O         1.568348         0.193159         0.022138
 C        -0.707108        -1.262258         0.185525
 C        -0.263224        -2.664077         0.064007
 O        -1.645267        -0.791565        -0.860870
 H        -2.611481        -2.311181         2.143671
 H        -3.540888        -0.910696         2.222948
 H        -3.450252        -1.801173         0.590856
 H        -1.368560        -0.176873         2.055347
 H        -2.971717         0.802285        -0.207845
 H        -0.686276         1.725225        -0.992817
 H        -0.453575         1.788593         0.848923
 H         0.768103        -2.867744         0.298217
 H        -0.981713        -3.198648         0.594423
 H        -0.377531        -2.955042        -0.959262
