19
Iteration:  1675charge 0 multiplicity 1
 C        -2.797000        -1.573410         1.605363
 C        -1.707491        -0.608528         1.196906
 C        -2.012325         0.359901        -0.060855
 C        -0.826102         1.293186        -0.100876
 C         0.273764        -0.064742         0.041893
 O         1.476173        -0.185082         0.114983
 C        -0.714978        -1.161753         0.116392
 C        -0.118263        -2.434137         0.111941
 O        -1.685577        -0.786006        -0.932955
 H        -2.465740        -2.594580         1.776329
 H        -3.218779        -1.213817         2.551788
 H        -3.528587        -1.443742         0.797673
 H        -1.196183        -0.138301         2.092143
 H        -3.022858         0.667888        -0.292623
 H        -0.682819         1.879020        -0.997820
 H        -0.729042         1.815765         0.858840
 H         0.706106        -2.438440         0.816626
 H        -0.799960        -3.256966         0.196446
 H         0.342553        -2.512084        -0.917128
