19
Iteration:  1227charge 0 multiplicity 1
 C        -2.947674        -1.575144         1.574123
 C        -1.638500        -0.736971         1.227543
 C        -1.980659         0.377714         0.128884
 C        -0.734698         1.182585        -0.145448
 C         0.243422         0.114255         0.088755
 O         1.468238         0.095001         0.009094
 C        -0.641623        -1.215437         0.191657
 C        -0.254359        -2.633158         0.001596
 O        -1.551437        -0.766571        -0.901914
 H        -3.002128        -2.264256         2.405742
 H        -3.604591        -0.791732         1.928839
 H        -3.214290        -2.054146         0.633492
 H        -1.184727        -0.293014         2.168068
 H        -3.087225         0.534474        -0.345327
 H        -0.757388         1.480810        -1.199164
 H        -0.472214         2.028396         0.428932
 H        -0.429960        -3.052743         1.042410
 H        -1.004166        -3.219624        -0.554285
 H         0.774083        -2.822589        -0.301363
