19
Iteration:  4130
 C        -2.940870        -1.553130         1.631344
 C        -1.695130        -0.621434         1.215041
 C        -2.005644         0.369383         0.100891
 C        -0.678197         1.235680        -0.153636
 C         0.216375        -0.002499        -0.030034
 O         1.447081         0.019311         0.125973
 C        -0.688519        -1.215527         0.120330
 C        -0.141365        -2.627622         0.053145
 O        -1.627553        -0.739049        -0.953279
 H        -3.471383        -1.927797         0.689804
 H        -2.804670        -2.583500         2.084401
 H        -3.662592        -0.866371         2.179454
 H        -1.196256        -0.387713         2.125202
 H        -3.011268         0.883016        -0.040841
 H        -0.620339         1.554180        -1.138051
 H        -0.149877         1.776030         0.641309
 H         0.391902        -2.915448         0.975154
 H        -0.857386        -3.415206        -0.108225
 H         0.696146        -2.653159        -0.691362
