19
Iteration:  3512charge 0 multiplicity 1
 C        -2.816992        -1.605254         1.533669
 C        -1.830902        -0.644962         1.179508
 C        -2.020794         0.386584        -0.089476
 C        -0.623308         1.273701        -0.005791
 C         0.265584        -0.046748         0.054865
 O         1.455004        -0.060247         0.035840
 C        -0.761625        -1.126123         0.162001
 C        -0.145049        -2.586716         0.192292
 O        -1.626348        -0.764942        -0.955402
 H        -3.543192        -1.689667         0.677672
 H        -2.447048        -2.564704         1.946407
 H        -3.456089        -1.238720         2.332979
 H        -1.261985        -0.097293         1.962261
 H        -2.927707         0.888746        -0.475452
 H        -0.366509         1.953539        -0.801707
 H        -0.836272         1.906679         0.799156
 H         0.946766        -2.544519         0.500705
 H        -0.701397        -3.232429         1.010148
 H        -0.240295        -3.025800        -0.843207
