19
Iteration:  1961charge 0 multiplicity 1
 C        -2.795678        -1.589716         1.692380
 C        -1.787752        -0.584623         1.182550
 C        -1.976700         0.361006         0.030321
 C        -0.756104         1.208713        -0.208456
 C         0.222956        -0.055883         0.115876
 O         1.436722        -0.134233         0.120760
 C        -0.744293        -1.157265         0.080895
 C        -0.042472        -2.529597        -0.033711
 O        -1.680632        -0.653661        -0.884986
 H        -2.738826        -1.701133         2.778106
 H        -3.776972        -1.219769         1.355681
 H        -2.742318        -2.567073         1.248179
 H        -1.245195        -0.130244         2.057495
 H        -3.003435         0.750422        -0.167322
 H        -0.757313         1.624945        -1.180864
 H        -0.463471         1.805448         0.669475
 H         0.559121        -2.720763         0.894603
 H        -0.745560        -3.404696        -0.112665
 H         0.600037        -2.698947        -0.906917
