19
Iteration:  3755
 C        -2.865252        -1.565922         1.478602
 C        -1.806984        -0.613384         1.227071
 C        -1.978815         0.360083         0.032849
 C        -0.728811         1.130222         0.015658
 C         0.290896         0.020049         0.056896
 O         1.501303        -0.062815        -0.051558
 C        -0.747971        -1.144655         0.175037
 C        -0.066364        -2.601547         0.116277
 O        -1.681976        -0.730831        -0.925057
 H        -2.806619        -2.422892         0.780489
 H        -2.957818        -1.949759         2.535888
 H        -3.807256        -0.936872         1.298879
 H        -1.712393        -0.095166         2.114572
 H        -2.848903         0.987535        -0.049663
 H        -0.342335         1.710491        -0.840433
 H        -0.663790         1.748802         0.871420
 H         0.775445        -2.397668         0.856981
 H        -0.815424        -3.262061         0.520330
 H         0.138529        -2.745168        -0.971407
