19
Iteration:  3349charge 0 multiplicity 1
 C        -2.723917        -1.584290         1.557865
 C        -1.636519        -0.603563         1.164114
 C        -1.957915         0.331784        -0.110842
 C        -0.756924         1.177387        -0.180616
 C         0.290581         0.071094         0.059165
 O         1.445494        -0.006261         0.250298
 C        -0.738780        -1.178492         0.092582
 C        -0.310915        -2.571285         0.121400
 O        -1.672230        -0.795286        -0.916401
 H        -3.438908        -1.961383         0.815836
 H        -2.178548        -2.431708         1.973780
 H        -3.179114        -1.126884         2.408729
 H        -1.315025        -0.172091         2.113103
 H        -2.885252         0.802591        -0.396645
 H        -0.704976         1.922215        -1.039549
 H        -0.618417         1.900964         0.690359
 H        -0.235402        -2.868185         1.133692
 H        -1.136084        -3.136547        -0.334161
 H         0.561163        -2.854920        -0.425748
