19
Iteration:  3475
 C        -2.957795        -1.641425         1.424698
 C        -1.764684        -0.610440         1.227238
 C        -2.010170         0.364084         0.029453
 C        -0.681142         1.233429        -0.105434
 C         0.339892         0.038099         0.067329
 O         1.538103        -0.010208        -0.022582
 C        -0.699575        -1.194291         0.216830
 C        -0.178162        -2.567718         0.210574
 O        -1.640717        -0.747794        -0.894710
 H        -3.494111        -1.754922         0.476470
 H        -2.787589        -2.695798         1.760411
 H        -3.574789        -1.023740         2.149489
 H        -1.369553        -0.551029         2.208931
 H        -3.077517         0.768665        -0.142913
 H        -0.499988         1.606901        -1.120702
 H        -0.542330         2.105815         0.635083
 H         0.880585        -2.643335         0.472046
 H        -0.852314        -3.153797         0.888739
 H        -0.386069        -3.026904        -0.774380
