19
Iteration:  2893
 C        -2.933387        -1.662641         1.450936
 C        -1.792770        -0.673101         1.215847
 C        -1.989307         0.413622         0.082082
 C        -0.680618         1.250434        -0.215199
 C         0.276337         0.019597         0.010113
 O         1.522100        -0.009607         0.081384
 C        -0.724912        -1.146439         0.236258
 C        -0.154937        -2.609102         0.249974
 O        -1.644819        -0.705757        -0.989664
 H        -3.289329        -2.050210         0.488368
 H        -2.604803        -2.566871         2.014777
 H        -3.772619        -1.304905         2.009614
 H        -1.465096        -0.258154         2.180584
 H        -2.952995         0.821943        -0.015926
 H        -0.439977         1.603822        -1.207754
 H        -0.130884         1.929162         0.553158
 H         0.854671        -2.666471         0.726510
 H        -0.847387        -3.206893         0.928235
 H        -0.164660        -2.996415        -0.782738
