19
Iteration:  4555
 C        -2.782149        -1.588524         1.673513
 C        -1.735487        -0.599341         1.115484
 C        -1.963616         0.396024        -0.053679
 C        -0.680625         1.211480        -0.052578
 C         0.240282        -0.059878         0.085358
 O         1.431303        -0.048819         0.214202
 C        -0.722683        -1.188840         0.056959
 C        -0.190743        -2.570143         0.055623
 O        -1.687598        -0.721072        -1.016132
 H        -3.190332        -2.364589         0.953239
 H        -2.525047        -1.983139         2.686860
 H        -3.784359        -1.114903         2.008259
 H        -1.262882        -0.163784         2.014761
 H        -2.901776         0.906976        -0.201026
 H        -0.492478         1.493756        -1.042529
 H        -0.540810         1.928150         0.646597
 H         0.518847        -2.623140         0.897441
 H        -0.903714        -3.324223        -0.147690
 H         0.428715        -2.684771        -0.829763
