19
Iteration:  1291charge 0 multiplicity 1
 C        -2.770149        -1.638813         1.602951
 C        -1.730053        -0.587171         1.175007
 C        -1.984487         0.368755         0.042912
 C        -0.747609         1.218474        -0.045745
 C         0.224466         0.021569         0.061081
 O         1.440620        -0.172326         0.090557
 C        -0.766422        -1.114120         0.121284
 C        -0.113463        -2.501000         0.100354
 O        -1.667995        -0.733904        -1.044052
 H        -2.307799        -2.451218         2.198490
 H        -3.621012        -1.138777         2.108499
 H        -3.281865        -2.148073         0.751347
 H        -1.098988        -0.165262         1.989399
 H        -2.909654         1.007228        -0.133061
 H        -0.866033         1.704503        -1.084925
 H        -0.638690         1.893589         0.822293
 H         0.381431        -2.517671         1.100462
 H        -0.853720        -3.292007         0.091852
 H         0.711378        -2.646804        -0.563485
