19
Iteration:  4023
 C        -3.026522        -1.616731         1.553656
 C        -1.806119        -0.696078         1.180232
 C        -2.046695         0.360467         0.028521
 C        -0.661861         1.249421        -0.081586
 C         0.314552        -0.038470         0.043812
 O         1.498743        -0.097561         0.000200
 C        -0.652301        -1.173363         0.134871
 C        -0.048053        -2.495071         0.136435
 O        -1.673128        -0.718987        -0.906407
 H        -3.658065        -1.617606         0.641830
 H        -2.733179        -2.571861         2.030454
 H        -3.511641        -0.945866         2.247863
 H        -1.380209        -0.261550         2.235516
 H        -3.077455         0.868366        -0.025366
 H        -0.470463         1.881913        -0.994094
 H        -0.524473         1.913098         0.829044
 H         0.804747        -2.432955         0.889744
 H        -0.796008        -3.266715         0.260800
 H         0.488741        -2.629556        -0.847907
