19
Iteration:  4675charge 0 multiplicity 1
 C        -2.842412        -1.644601         1.471991
 C        -1.863563        -0.541330         1.209571
 C        -2.016659         0.358594        -0.021576
 C        -0.683391         1.201119         0.045690
 C         0.254438        -0.042328         0.173392
 O         1.488611        -0.090463        -0.097020
 C        -0.709030        -1.111258         0.247433
 C        -0.222656        -2.519007         0.155743
 O        -1.540539        -0.747458        -0.994529
 H        -3.201539        -2.182555         0.493094
 H        -2.473060        -2.432526         2.212970
 H        -3.763734        -1.130018         1.897365
 H        -1.399669        -0.056969         2.154833
 H        -3.007133         0.783548        -0.294673
 H        -0.463972         1.703621        -0.949713
 H        -0.475641         1.849611         0.930427
 H         0.587842        -2.612292         0.880491
 H        -1.037039        -3.264950         0.226201
 H         0.294311        -2.703767        -0.752731
