19
Iteration:  1480charge 0 multiplicity 1
 C        -3.006863        -1.555534         1.637401
 C        -1.699812        -0.775212         1.214518
 C        -1.932003         0.349530         0.073682
 C        -0.673981         1.200973        -0.185169
 C         0.345434         0.056057         0.001248
 O         1.543362         0.274223         0.031752
 C        -0.678137        -1.237713         0.211656
 C        -0.319773        -2.689048         0.043097
 O        -1.631665        -0.799188        -0.937146
 H        -2.503931        -2.479340         1.864722
 H        -3.498293        -1.152370         2.491330
 H        -3.637464        -1.836536         0.830948
 H        -1.231716        -0.461267         2.146161
 H        -2.994428         0.839068         0.014625
 H        -0.473093         1.523622        -1.145345
 H        -0.566184         1.828115         0.694033
 H        -0.140454        -2.950454         1.045113
 H        -1.272267        -3.097080        -0.184488
 H         0.547824        -3.031645        -0.507965
