19
Iteration:  1906
 C        -2.876712        -1.515351         1.552833
 C        -1.783786        -0.558289         1.233011
 C        -1.970797         0.326626         0.045555
 C        -0.760685         1.191029         0.001450
 C         0.260456         0.024468        -0.005481
 O         1.490583         0.084985         0.008264
 C        -0.695035        -1.182582         0.139173
 C        -0.151429        -2.751376         0.109156
 O        -1.613998        -0.774242        -0.947542
 H        -2.663212        -2.535800         1.856264
 H        -3.577098        -1.145368         2.324651
 H        -3.466875        -1.535673         0.647219
 H        -1.110416        -0.269939         2.081312
 H        -2.962814         0.699153        -0.183785
 H        -0.603531         1.652093        -0.918229
 H        -0.619942         1.982706         0.770288
 H         0.902786        -2.811296         0.459493
 H        -0.793694        -3.350606         0.760598
 H        -0.164680        -3.105392        -0.955329
