19
Iteration:  4085
 C        -2.807411        -1.582302         1.506359
 C        -1.707594        -0.576021         1.233864
 C        -1.980146         0.284551        -0.000364
 C        -0.712482         1.291543         0.029117
 C         0.313155        -0.000516         0.025849
 O         1.549696         0.039771         0.001085
 C        -0.685354        -1.141770         0.151248
 C        -0.363408        -2.593437         0.101843
 O        -1.636383        -0.855590        -0.912217
 H        -3.006374        -2.349975         0.734624
 H        -2.624918        -2.426773         2.172716
 H        -3.769900        -1.005213         1.708939
 H        -1.431646         0.020016         2.024088
 H        -2.955549         0.820715        -0.116619
 H        -0.665593         1.820871        -0.869757
 H        -0.808412         1.970535         0.885968
 H         0.030480        -3.039268         0.997632
 H        -1.286413        -3.081014        -0.239243
 H         0.461774        -2.898959        -0.571612
