19
Iteration:  4517
 C        -2.818866        -1.572929         1.630072
 C        -1.714494        -0.646455         1.147740
 C        -1.954009         0.326602         0.009978
 C        -0.721604         1.204058        -0.058079
 C         0.298367        -0.029410         0.046184
 O         1.490068         0.019803         0.254551
 C        -0.671662        -1.169512         0.012113
 C        -0.298442        -2.569766         0.055291
 O        -1.671786        -0.752347        -1.016122
 H        -3.202345        -2.196430         0.844098
 H        -2.433151        -2.285724         2.342184
 H        -3.559552        -0.878727         1.959937
 H        -1.289540        -0.055011         2.028734
 H        -2.960710         0.792543        -0.170642
 H        -0.594477         1.496063        -1.191056
 H        -0.700047         2.073147         0.760933
 H         0.646339        -2.740483         0.559603
 H        -1.051196        -3.172871         0.659835
 H        -0.148514        -2.861611        -1.002685
