19
Iteration:  4869
 C        -2.889527        -1.505883         1.527270
 C        -1.706212        -0.658937         1.230999
 C        -1.922413         0.332782         0.043635
 C        -0.685714         1.181045        -0.187895
 C         0.276581         0.040813         0.094389
 O         1.464758         0.017560         0.177569
 C        -0.721950        -1.233105         0.166959
 C        -0.212016        -2.605833        -0.000478
 O        -1.669014        -0.730305        -0.929060
 H        -3.086015        -2.289865         0.776275
 H        -2.509412        -2.068237         2.423617
 H        -3.794027        -0.891872         1.652935
 H        -1.408997        -0.276403         2.242501
 H        -2.891573         0.791274        -0.091443
 H        -0.660164         1.427792        -1.290093
 H        -0.592659         1.964366         0.616159
 H         0.383298        -2.934430         0.951861
 H        -1.126963        -3.271141        -0.163058
 H         0.519208        -2.693695        -0.864136
