19
Iteration:  1558
 C        -2.896084        -1.711228         1.666465
 C        -1.861721        -0.623520         1.212976
 C        -2.024058         0.416782         0.012372
 C        -0.680970         1.156181        -0.134850
 C         0.349793         0.000734         0.116339
 O         1.527619        -0.142358        -0.007283
 C        -0.758121        -1.107104         0.120534
 C        -0.017736        -2.463156         0.092978
 O        -1.734239        -0.672335        -0.961759
 H        -2.612875        -2.149048         2.582561
 H        -3.883067        -1.313735         1.876872
 H        -3.090533        -2.460074         0.901412
 H        -1.524593        -0.075853         2.100086
 H        -2.985590         1.047554        -0.227799
 H        -0.622812         1.653543        -1.050636
 H        -0.435709         1.735119         0.785145
 H         0.793761        -2.487688         0.812201
 H        -0.690207        -3.255119         0.325751
 H         0.251258        -2.722452        -0.923152
