19
Iteration:  1476
 C        -2.993168        -1.572932         1.636190
 C        -1.682571        -0.769452         1.244744
 C        -1.916978         0.344177         0.001706
 C        -0.717387         1.165605        -0.171881
 C         0.299987         0.037568         0.015453
 O         1.558594         0.262137         0.031039
 C        -0.687262        -1.214735         0.204376
 C        -0.322547        -2.696277         0.042905
 O        -1.616896        -0.738358        -0.913818
 H        -2.429204        -2.531576         1.857942
 H        -3.536119        -1.073834         2.482176
 H        -3.688108        -1.887417         0.813598
 H        -1.257335        -0.347248         2.155465
 H        -2.898078         0.656166         0.084110
 H        -0.472561         1.593489        -1.272172
 H        -0.462980         1.920849         0.646942
 H        -0.096722        -3.045453         1.079054
 H        -1.310994        -3.184156        -0.186701
 H         0.558776        -3.035878        -0.496920
