19
Iteration:  1387charge 0 multiplicity 1
 C        -2.884063        -1.563585         1.605718
 C        -1.697009        -0.745160         1.238705
 C        -2.014764         0.364594        -0.014227
 C        -0.700250         1.195877        -0.123574
 C         0.247967         0.066947         0.051225
 O         1.459045        -0.042093         0.083740
 C        -0.731190        -1.207375         0.164502
 C        -0.103883        -2.548799         0.035859
 O        -1.670381        -0.687079        -0.931264
 H        -2.864142        -2.220888         2.512953
 H        -3.787811        -0.927497         1.812722
 H        -3.151811        -2.297181         0.794278
 H        -1.227575        -0.411048         2.177283
 H        -2.945743         0.853747        -0.031152
 H        -0.715283         1.363151        -1.267460
 H        -0.445847         2.006093         0.603762
 H         0.888980        -2.438398         0.586409
 H        -0.722884        -3.250600         0.583691
 H         0.178630        -2.797271        -0.986466
