19
Iteration:  2072charge 0 multiplicity 1
 C        -2.875294        -1.693819         1.682739
 C        -1.839494        -0.515797         1.239069
 C        -1.975798         0.382094         0.052754
 C        -0.684582         1.160950         0.037554
 C         0.319533         0.056161         0.049045
 O         1.476857        -0.163281        -0.032353
 C        -0.723695        -1.198858         0.104047
 C        -0.109157        -2.488122        -0.030198
 O        -1.712987        -0.692417        -0.998354
 H        -3.951149        -1.463069         1.579187
 H        -2.626014        -2.585474         1.174867
 H        -2.536499        -1.838265         2.723728
 H        -1.454356        -0.088600         2.212263
 H        -3.058452         0.813724        -0.138585
 H        -0.659959         1.935629        -0.792962
 H        -0.386312         1.807074         0.849461
 H         0.518560        -2.669791         0.903472
 H        -0.775516        -3.398801        -0.121180
 H         0.592893        -2.293479        -0.803305
