19
Iteration:   111
 C        -2.794039        -1.583768         1.634994
 C        -1.762520        -0.575524         1.122187
 C        -1.976894         0.351176        -0.122321
 C        -0.758352         1.267516        -0.115457
 C         0.283304         0.058638         0.103695
 O         1.445150        -0.064535         0.255690
 C        -0.741097        -1.134698         0.120342
 C        -0.119871        -2.523499         0.048330
 O        -1.691344        -0.920633        -0.974871
 H        -2.235059        -2.029947         2.457321
 H        -3.632027        -1.123762         2.155538
 H        -3.123974        -2.356929         0.949181
 H        -1.276801        -0.040829         1.938192
 H        -2.904064         0.868377        -0.417793
 H        -0.670996         1.749138        -1.032958
 H        -0.856522         1.885697         0.719781
 H         0.743217        -2.583267         0.728230
 H        -0.848243        -3.364156         0.129012
 H         0.400774        -2.603829        -0.894432
