19
Iteration:  3214charge 0 multiplicity 1
 C        -2.889776        -1.623305         1.481515
 C        -1.827154        -0.686241         1.219533
 C        -1.992966         0.356572         0.043975
 C        -0.729160         1.234388        -0.114218
 C         0.305042         0.088274         0.038607
 O         1.516222        -0.007246         0.019344
 C        -0.651357        -1.184854         0.179303
 C        -0.215569        -2.649876         0.269406
 O        -1.572360        -0.677925        -1.005118
 H        -3.291909        -2.151609         0.616239
 H        -2.725817        -2.441400         2.175326
 H        -3.745572        -1.091958         1.941968
 H        -1.463821        -0.168508         2.178656
 H        -3.098046         0.801720        -0.056979
 H        -0.619549         1.553237        -1.118506
 H        -0.501438         1.910775         0.681520
 H         0.915715        -2.563372         0.475164
 H        -0.836590        -3.295846         0.946615
 H        -0.486895        -3.043203        -0.765030
