19
Iteration:    70
 C        -2.837204        -1.524625         1.746588
 C        -1.757258        -0.684902         1.103058
 C        -1.964228         0.325914        -0.085310
 C        -0.789463         1.217206        -0.142828
 C         0.243824         0.057806         0.151896
 O         1.423458         0.045147         0.262275
 C        -0.697106        -1.286833         0.059162
 C        -0.070655        -2.635324         0.079343
 O        -1.640274        -0.723910        -1.102479
 H        -2.481239        -2.274994         2.471480
 H        -3.562404        -0.943323         2.339234
 H        -3.422101        -2.083939         0.996808
 H        -1.177164        -0.149219         1.915174
 H        -2.960965         0.789998        -0.256302
 H        -0.596853         1.511612        -1.151782
 H        -0.820450         2.178709         0.582704
 H         0.877191        -2.546330         0.580404
 H        -0.672924        -3.327012         0.660896
 H        -0.021888        -2.964288        -0.917088
