19
Iteration:  2497
 C        -2.839990        -1.525097         1.560570
 C        -1.706903        -0.616341         1.213052
 C        -2.055908         0.293178        -0.049691
 C        -0.721627         1.135780        -0.126304
 C         0.317413         0.003631        -0.014567
 O         1.515971         0.004239         0.228100
 C        -0.722531        -1.140659         0.121453
 C        -0.135516        -2.531155         0.117649
 O        -1.746769        -0.776709        -0.966355
 H        -3.654691        -1.451289         0.816611
 H        -2.590232        -2.628723         1.514651
 H        -3.298740        -1.246824         2.530464
 H        -1.120760        -0.273184         2.155940
 H        -3.019102         0.749050        -0.131848
 H        -0.493589         1.627904        -1.159258
 H        -0.488023         1.687726         0.789438
 H         0.187205        -2.858257         1.094537
 H        -0.814601        -3.263820        -0.210756
 H         0.591938        -2.452470        -0.727079
