19
Iteration:  4937
 C        -2.981625        -1.510763         1.462446
 C        -1.805982        -0.662740         1.197590
 C        -1.961903         0.329218         0.064516
 C        -0.703409         1.153525         0.011686
 C         0.210088        -0.042442         0.031112
 O         1.443032        -0.044193        -0.087581
 C        -0.736210        -1.189351         0.158081
 C        -0.090229        -2.572004         0.202286
 O        -1.510854        -0.659277        -0.943289
 H        -3.417733        -1.956279         0.563578
 H        -2.606804        -2.279810         2.048217
 H        -3.710098        -0.889990         1.926416
 H        -1.353501        -0.378811         2.115307
 H        -2.980422         0.798767        -0.113154
 H        -0.479096         2.021434        -0.730457
 H        -0.579903         1.670533         1.039708
 H         0.928298        -2.410245         0.653771
 H        -0.832589        -3.279507         0.844652
 H         0.177655        -3.144073        -0.671559
