19
Iteration:   459
 C        -2.940009        -1.551652         1.523007
 C        -1.788557        -0.717201         1.182348
 C        -2.045662         0.369268         0.076402
 C        -0.726384         1.112599        -0.135669
 C         0.298688        -0.054597         0.037372
 O         1.495012         0.124480         0.049120
 C        -0.680927        -1.185291         0.194379
 C        -0.122164        -2.532593         0.202222
 O        -1.567386        -0.760533        -0.979909
 H        -2.971514        -2.491578         2.135636
 H        -3.696523        -0.969515         2.120797
 H        -3.546845        -1.955412         0.662834
 H        -1.349021        -0.296385         2.108302
 H        -2.952862         0.740701        -0.197327
 H        -0.655221         1.550854        -1.233228
 H        -0.503059         1.940274         0.454863
 H         0.791953        -2.522832         0.839803
 H        -0.796170        -3.287514         0.564555
 H         0.131649        -2.853224        -0.800526
