19
Iteration:  2441
 C        -2.881789        -1.670625         1.516231
 C        -1.852678        -0.528847         1.152448
 C        -1.937738         0.331373        -0.041221
 C        -0.732799         1.140465         0.012880
 C         0.299528        -0.020540         0.027132
 O         1.505106        -0.014845        -0.016749
 C        -0.659331        -1.144555         0.216373
 C        -0.192723        -2.482256         0.186084
 O        -1.638097        -0.769056        -0.953499
 H        -3.369101        -2.163151         0.642113
 H        -2.380707        -2.427909         2.127464
 H        -3.641626        -1.189098         2.148321
 H        -1.712011        -0.171122         2.200284
 H        -2.801527         0.872142        -0.218016
 H        -0.556334         1.740621        -0.963641
 H        -0.556062         1.785521         0.877005
 H         0.631926        -2.574094         0.916813
 H        -0.994340        -3.130952         0.435566
 H         0.228534        -2.738052        -0.763099
