19
Iteration:   207charge 0 multiplicity 1
 C        -2.946265        -1.638663         1.657571
 C        -1.811817        -0.676734         1.159997
 C        -1.985882         0.342182        -0.082757
 C        -0.741436         1.267403        -0.002390
 C         0.204835         0.097988         0.077209
 O         1.390592        -0.006420        -0.040858
 C        -0.765428        -1.187374         0.205185
 C        -0.102225        -2.549141         0.211113
 O        -1.400935        -0.789739        -1.041227
 H        -2.511446        -2.471241         2.221081
 H        -3.532829        -1.038848         2.375303
 H        -3.529301        -1.978969         0.796334
 H        -1.379931        -0.291639         2.072075
 H        -2.950028         0.609701        -0.465367
 H        -0.580743         1.754336        -1.104078
 H        -0.616240         1.867356         0.857560
 H         0.476013        -2.694100         1.153926
 H        -0.913000        -3.303530        -0.045062
 H         0.711658        -2.619763        -0.542641
