19
Iteration:  1243charge 0 multiplicity 1
 C        -2.902069        -1.558959         1.536946
 C        -1.745762        -0.647209         1.257381
 C        -2.000595         0.287478         0.051647
 C        -0.752839         1.222074        -0.125997
 C         0.337547        -0.023254         0.015199
 O         1.540276         0.044428         0.052286
 C        -0.681906        -1.158991         0.142137
 C        -0.194024        -2.580256         0.054886
 O        -1.676166        -0.744065        -0.865567
 H        -2.599569        -2.182905         2.406209
 H        -3.863883        -1.027102         1.722725
 H        -3.180463        -2.319630         0.780331
 H        -1.367638        -0.215098         2.172499
 H        -2.877197         0.809084         0.053585
 H        -0.726849         1.460509        -1.203268
 H        -0.609050         1.983136         0.704200
 H        -0.039909        -3.167167         0.951869
 H        -0.876966        -3.107194        -0.634894
 H         0.823226        -2.564756        -0.400864
