19
Iteration:  2770charge 0 multiplicity 1
 C        -2.748080        -1.530832         1.486881
 C        -1.666607        -0.548318         1.233992
 C        -1.918905         0.313419        -0.037354
 C        -0.701877         1.196905        -0.097062
 C         0.276472        -0.001895        -0.022162
 O         1.431636         0.011292         0.240237
 C        -0.702307        -1.174766         0.139871
 C        -0.302527        -2.565614         0.051033
 O        -1.682986        -0.855969        -0.871882
 H        -2.844789        -2.318235         0.744838
 H        -2.625080        -2.079802         2.433412
 H        -3.785898        -1.229002         1.431247
 H        -1.467013         0.067714         2.126173
 H        -2.812892         0.923483        -0.350487
 H        -0.654299         1.606029        -1.189576
 H        -0.701351         2.045270         0.559908
 H        -0.298198        -2.952982         1.105692
 H        -1.042228        -3.270805        -0.486167
 H         0.651114        -2.584291        -0.596678
