19
Iteration:   209charge 0 multiplicity 1
 C        -2.954678        -1.656201         1.675432
 C        -1.833643        -0.678989         1.165450
 C        -1.962441         0.344252        -0.110908
 C        -0.734177         1.263090         0.000715
 C         0.198877         0.105870         0.076682
 O         1.382913        -0.027822        -0.046919
 C        -0.744189        -1.172155         0.196037
 C        -0.078395        -2.544221         0.206153
 O        -1.405849        -0.762507        -1.030845
 H        -2.546908        -2.464014         2.261466
 H        -3.558199        -1.063949         2.367414
 H        -3.543851        -2.030862         0.851602
 H        -1.401061        -0.223300         2.046335
 H        -2.962569         0.584498        -0.515029
 H        -0.594406         1.674082        -1.046477
 H        -0.707706         1.878823         0.857430
 H         0.453270        -2.734522         1.194410
 H        -0.909294        -3.297334         0.006550
 H         0.673264        -2.653985        -0.578131
