19
Iteration:  1293
 C        -2.775957        -1.644992         1.611477
 C        -1.732574        -0.590598         1.167442
 C        -1.993429         0.355155         0.038913
 C        -0.753926         1.229852        -0.058432
 C         0.247951         0.009214         0.062442
 O         1.435621        -0.163901         0.091037
 C        -0.762086        -1.112446         0.124753
 C        -0.114353        -2.499662         0.107192
 O        -1.659310        -0.722287        -1.050856
 H        -2.401879        -2.487341         2.205998
 H        -3.575444        -1.137981         2.175935
 H        -3.241903        -2.103015         0.726105
 H        -1.094160        -0.148395         1.981654
 H        -2.947979         1.054000        -0.042384
 H        -0.881710         1.678457        -1.019107
 H        -0.622269         1.872268         0.779652
 H         0.375788        -2.572817         1.088350
 H        -0.890311        -3.306509         0.145111
 H         0.696557        -2.669038        -0.611714
