19
Iteration:  4136
 C        -2.913672        -1.493202         1.613945
 C        -1.709409        -0.668806         1.242988
 C        -2.029562         0.354601         0.064599
 C        -0.701665         1.201318        -0.154823
 C         0.273350         0.013030         0.006406
 O         1.431315        -0.033238         0.134170
 C        -0.708472        -1.177459         0.092272
 C        -0.121248        -2.594752         0.054750
 O        -1.651171        -0.758970        -0.939775
 H        -3.440178        -1.759660         0.690603
 H        -2.681502        -2.501733         2.009450
 H        -3.649282        -0.976930         2.229100
 H        -1.041870        -0.436068         2.197247
 H        -2.951582         0.871201        -0.088546
 H        -0.572098         1.796035        -1.170336
 H        -0.339360         1.881212         0.675444
 H         0.527517        -2.778186         0.930988
 H        -0.839282        -3.429339        -0.185173
 H         0.656912        -2.646534        -0.714481
