19
Iteration:  3954charge 0 multiplicity 1
 C        -2.948889        -1.660512         1.641471
 C        -1.746346        -0.653633         1.201555
 C        -1.967536         0.347962         0.072646
 C        -0.704676         1.221378        -0.175133
 C         0.312715        -0.006361         0.019935
 O         1.565442         0.109563         0.147288
 C        -0.727581        -1.162226         0.108160
 C        -0.284027        -2.649063         0.036815
 O        -1.585762        -0.723934        -0.964688
 H        -3.258255        -2.265302         0.784278
 H        -2.541170        -2.196133         2.519315
 H        -3.858797        -1.013291         1.867571
 H        -1.476891        -0.121830         2.271395
 H        -3.000901         0.644751        -0.259791
 H        -0.592469         1.758499        -1.050580
 H        -0.375100         1.776347         0.704330
 H         0.599842        -2.718127         0.626211
 H        -1.129153        -3.321678         0.431282
 H        -0.010241        -2.996445        -0.957481
