19
Iteration:  1273
 C        -2.768259        -1.622448         1.548342
 C        -1.753208        -0.573495         1.157064
 C        -2.023825         0.371347        -0.082471
 C        -0.630428         1.265672        -0.018294
 C         0.207180        -0.056618         0.043068
 O         1.433910        -0.110832         0.080605
 C        -0.758962        -1.153109         0.063983
 C        -0.073134        -2.485934         0.095545
 O        -1.763956        -0.775457        -0.849976
 H        -2.433848        -2.252887         2.387084
 H        -3.649051        -1.177802         2.028264
 H        -2.902543        -2.300609         0.727096
 H        -1.375279        -0.063097         2.076265
 H        -3.060816         0.952838        -0.152689
 H        -0.307393         1.759296        -0.850672
 H        -0.522688         1.826792         0.889961
 H         0.249072        -2.809828         1.074664
 H        -0.718202        -3.368292        -0.257113
 H         0.827862        -2.371961        -0.578407
