19
Iteration:  2981charge 0 multiplicity 1
 C        -3.014771        -1.504941         1.718246
 C        -1.790637        -0.671917         1.137862
 C        -1.918011         0.310832        -0.108963
 C        -0.765627         1.159419        -0.039145
 C         0.219288         0.039876         0.091359
 O         1.452454        -0.092790         0.087129
 C        -0.697484        -1.211934         0.188661
 C        -0.106137        -2.471596         0.101622
 O        -1.525533        -0.742473        -1.044495
 H        -3.482692        -2.068737         0.915214
 H        -2.576793        -2.142157         2.483045
 H        -3.691618        -0.819396         2.211996
 H        -1.284949        -0.229823         2.035478
 H        -2.808039         0.779313        -0.406327
 H        -0.569729         1.501346        -1.019706
 H        -0.596181         2.059646         0.573056
 H         0.672629        -2.597379         0.921005
 H        -0.758175        -3.410560         0.140279
 H         0.373736        -2.547683        -0.890644
