19
Iteration:  2618charge 0 multiplicity 1
 C        -2.830234        -1.638084         1.444612
 C        -1.767775        -0.635232         1.135633
 C        -1.982372         0.322717         0.013650
 C        -0.649399         1.240141        -0.093867
 C         0.251937         0.085856         0.049989
 O         1.429261        -0.159187         0.087764
 C        -0.697795        -1.127021         0.157284
 C        -0.146457        -2.500965         0.235821
 O        -1.667851        -0.724925        -0.927589
 H        -3.085589        -2.262276         0.546545
 H        -2.569098        -2.393648         2.258250
 H        -3.774572        -1.125214         1.760298
 H        -1.384012        -0.265077         2.161780
 H        -2.965097         0.822212        -0.187095
 H        -0.667618         1.873093        -1.099770
 H        -0.684149         2.009658         0.784983
 H         0.873017        -2.438348         0.664765
 H        -0.844617        -3.185099         0.766722
 H         0.012825        -2.899210        -0.812892
