19
Iteration:  4977charge 0 multiplicity 1
 C        -2.917434        -1.616463         1.364161
 C        -1.780024        -0.594046         1.182842
 C        -1.962920         0.359124        -0.036827
 C        -0.632037         1.177311         0.024081
 C         0.300813         0.017961         0.150251
 O         1.498449        -0.017049        -0.127640
 C        -0.726035        -1.170387         0.224089
 C        -0.211139        -2.565264         0.212785
 O        -1.627246        -0.755358        -0.879260
 H        -3.727468        -1.798868         0.566509
 H        -2.695450        -2.733521         1.675970
 H        -3.418062        -1.478985         2.391489
 H        -1.466953        -0.012961         2.148389
 H        -2.897967         0.911824        -0.134430
 H        -0.523673         1.819847        -0.837751
 H        -0.684128         1.951239         0.811976
 H         0.786524        -2.478654         0.713588
 H        -0.853782        -3.118273         0.787245
 H        -0.079487        -3.040269        -0.751505
