19
Iteration:  1133
 C        -2.923557        -1.651125         1.500683
 C        -1.737824        -0.659327         1.227281
 C        -1.961186         0.341151         0.072769
 C        -0.770469         1.243038        -0.101559
 C         0.241999         0.003665         0.078924
 O         1.441495        -0.134518         0.003268
 C        -0.694908        -1.161371         0.182285
 C        -0.099130        -2.512254         0.157935
 O        -1.633853        -0.640953        -0.964487
 H        -2.513637        -2.444371         2.201536
 H        -3.838128        -1.270654         2.024047
 H        -3.036948        -2.185970         0.557086
 H        -1.466097        -0.044485         2.088168
 H        -2.886959         0.770393        -0.010956
 H        -0.747495         1.620794        -1.190755
 H        -0.203363         2.121941         0.442641
 H         0.685218        -2.458661         0.904629
 H        -0.774961        -3.349232         0.477766
 H         0.425048        -2.636583        -0.811300
