19
Iteration:  1130charge 0 multiplicity 1
 C        -2.908001        -1.655356         1.492719
 C        -1.757864        -0.672689         1.239198
 C        -1.971544         0.334130         0.044099
 C        -0.733217         1.262236        -0.106045
 C         0.274376         0.037805         0.059177
 O         1.448629        -0.117577         0.009242
 C        -0.698148        -1.191036         0.187125
 C        -0.132960        -2.509735         0.158155
 O        -1.648936        -0.661793        -0.938219
 H        -2.567321        -2.400515         2.204672
 H        -3.806785        -1.170211         1.906343
 H        -3.082104        -2.209512         0.560506
 H        -1.394593        -0.144243         2.127072
 H        -2.992367         0.854343        -0.038078
 H        -0.820422         1.568870        -1.104691
 H        -0.224050         2.112646         0.528556
 H         0.797753        -2.469116         0.821997
 H        -0.752662        -3.363553         0.498499
 H         0.400304        -2.612454        -0.810811
