19
Iteration:  1138charge 0 multiplicity 1
 C        -2.919907        -1.651888         1.525010
 C        -1.727740        -0.624922         1.204623
 C        -1.952793         0.355939         0.121695
 C        -0.779906         1.215196        -0.110432
 C         0.197159        -0.045130         0.092620
 O         1.430354        -0.154840        -0.004403
 C        -0.708294        -1.115921         0.177311
 C        -0.042145        -2.517854         0.156853
 O        -1.604234        -0.618243        -0.996701
 H        -2.467118        -2.427301         2.130459
 H        -3.812455        -1.402792         2.086019
 H        -3.130237        -2.130288         0.545162
 H        -1.465666        -0.002351         2.098622
 H        -3.039384         0.769753        -0.045316
 H        -0.642069         1.573591        -1.134292
 H        -0.451822         2.049431         0.403935
 H         0.578037        -2.466608         1.097246
 H        -0.794700        -3.264536         0.330566
 H         0.438359        -2.752365        -0.784640
