19
Iteration:  3078charge 0 multiplicity 1
 C        -2.821764        -1.592299         1.592473
 C        -1.688412        -0.544188         1.162159
 C        -1.999523         0.347579        -0.083397
 C        -0.712180         1.163624        -0.143289
 C         0.288392         0.009638         0.063204
 O         1.515609         0.081668         0.227019
 C        -0.735953        -1.144391         0.154207
 C        -0.292026        -2.607786         0.056351
 O        -1.657557        -0.843318        -0.929502
 H        -3.090627        -2.140828         0.667772
 H        -2.614094        -2.306281         2.451628
 H        -3.585159        -0.874443         1.904815
 H        -1.120954        -0.163682         2.054615
 H        -2.929692         0.809381        -0.224844
 H        -0.538518         1.439036        -1.192555
 H        -0.678162         2.043373         0.426220
 H         0.022608        -3.084758         1.063974
 H        -1.068358        -3.399514        -0.267536
 H         0.640796        -2.756935        -0.535490
