19
Iteration:  3870charge 0 multiplicity 1
 C        -2.903584        -1.518954         1.645030
 C        -1.686300        -0.688386         1.188104
 C        -1.998344         0.434664         0.046681
 C        -0.735522         1.153144        -0.184654
 C         0.301446        -0.027767         0.090815
 O         1.461200         0.020585         0.215884
 C        -0.755403        -1.259139         0.088982
 C        -0.107222        -2.556196        -0.001712
 O        -1.695725        -0.745536        -0.938303
 H        -3.418998        -1.623467         0.681800
 H        -2.608798        -2.516790         1.917369
 H        -3.360741        -0.973838         2.429644
 H        -1.052678        -0.280360         2.023402
 H        -3.008512         0.889893        -0.110903
 H        -0.550136         1.220781        -1.279633
 H        -0.495682         2.177042         0.299989
 H         0.275162        -2.876242         0.942128
 H        -0.741037        -3.421497        -0.209672
 H         0.556722        -2.482913        -0.881536
