19
Iteration:    80
 C        -2.831654        -1.508328         1.764194
 C        -1.737211        -0.600940         1.162655
 C        -2.038198         0.245879        -0.175290
 C        -0.723307         1.157896        -0.057151
 C         0.191160         0.030052         0.089673
 O         1.420585         0.011536         0.282413
 C        -0.687354        -1.157584         0.058777
 C        -0.055238        -2.621567         0.073260
 O        -1.667574        -0.747188        -1.146410
 H        -2.237525        -2.144009         2.409276
 H        -3.574386        -0.922950         2.310776
 H        -3.292171        -2.145701         1.009009
 H        -1.281808        -0.074662         2.025067
 H        -2.990587         0.764521        -0.422850
 H        -0.533383         1.733605        -0.867898
 H        -0.750572         1.913631         0.844418
 H         0.912026        -2.572288         0.535446
 H        -0.660126        -3.372073         0.584589
 H         0.164441        -2.993463        -0.878782
