19
Iteration:  2520charge 0 multiplicity 1
 C        -2.906008        -1.446637         1.606239
 C        -1.687697        -0.602376         1.149970
 C        -1.936234         0.386032         0.005739
 C        -0.692896         1.184126        -0.097271
 C         0.309107         0.065197         0.079413
 O         1.450797         0.166469         0.213714
 C        -0.686778        -1.290917         0.042309
 C        -0.142722        -2.723008        -0.040579
 O        -1.701509        -0.935447        -0.854851
 H        -3.577487        -1.470755         0.721290
 H        -2.788446        -2.571969         1.851184
 H        -3.486726        -0.870463         2.368797
 H        -1.500626         0.057726         2.098885
 H        -2.868629         0.960420        -0.185486
 H        -0.589405         1.631923        -1.143050
 H        -0.664014         1.865475         0.786861
 H         0.018902        -3.186165         0.905368
 H        -0.976000        -3.276618        -0.476658
 H         0.596161        -2.745773        -0.886373
