19
Iteration:   990charge 0 multiplicity 1
 C        -2.763810        -1.565623         1.460661
 C        -1.678130        -0.631676         1.231414
 C        -1.970973         0.308408         0.036334
 C        -0.759316         1.186600        -0.240542
 C         0.304470         0.061406         0.020997
 O         1.489130        -0.061226         0.290034
 C        -0.760548        -1.185979         0.060705
 C        -0.162029        -2.538264         0.103323
 O        -1.754007        -0.752995        -0.899724
 H        -2.519051        -2.495331         2.011856
 H        -3.547787        -1.037613         2.069051
 H        -3.219657        -2.019169         0.541194
 H        -1.337991        -0.252553         2.242486
 H        -2.879559         0.871100        -0.004591
 H        -0.856083         1.665845        -1.180155
 H        -0.604110         2.078024         0.453504
 H         0.927395        -2.443848         0.200480
 H        -0.669188        -2.994388         0.946819
 H        -0.344063        -3.004349        -0.869985
