19
Iteration:  4503
 C        -2.785418        -1.510501         1.508903
 C        -1.676036        -0.577991         1.187094
 C        -1.990328         0.317975        -0.071418
 C        -0.701948         1.110517        -0.119238
 C         0.240236         0.037541         0.152808
 O         1.500767         0.046907         0.212385
 C        -0.711031        -1.176684         0.149966
 C        -0.264621        -2.614917        -0.047266
 O        -1.680500        -0.800768        -0.893116
 H        -3.283110        -1.917353         0.635081
 H        -2.428160        -2.308265         2.179314
 H        -3.533188        -1.050501         2.116540
 H        -1.174765        -0.190296         2.055985
 H        -2.950846         0.850549        -0.265557
 H        -0.544701         1.788296        -0.962612
 H        -0.622135         1.919597         0.794696
 H         0.718293        -2.794872         0.429009
 H        -1.057250        -3.249070         0.556509
 H        -0.348313        -3.055411        -1.048776
