19
Iteration:    38charge 0 multiplicity 1
 C        -2.936105        -1.586765         1.537678
 C        -1.710438        -0.617602         1.287451
 C        -1.932075         0.241545         0.016678
 C        -0.739871         1.112740        -0.252036
 C         0.311903         0.067883        -0.021975
 O         1.465859         0.167159         0.252339
 C        -0.607338        -1.170317         0.195817
 C        -0.178282        -2.585890         0.028156
 O        -1.693309        -0.821733        -0.902863
 H        -2.749115        -2.581522         2.004291
 H        -3.782756        -1.151728         2.117485
 H        -3.309455        -1.729678         0.500412
 H        -1.274665        -0.056954         2.176196
 H        -2.905458         0.759284        -0.137171
 H        -0.710317         1.400336        -1.315583
 H        -0.540272         2.028444         0.544120
 H         0.850386        -2.807716         0.284138
 H        -0.970992        -3.165043         0.490878
 H        -0.229253        -2.797033        -1.022489
