19
Iteration:  1552
 C        -2.887806        -1.689205         1.665584
 C        -1.910686        -0.619190         1.213150
 C        -2.018033         0.372965        -0.010296
 C        -0.641443         1.198774        -0.122702
 C         0.287439        -0.014523         0.114873
 O         1.545099        -0.160962        -0.009620
 C        -0.761817        -1.102231         0.098013
 C        -0.053855        -2.461570         0.085640
 O        -1.713979        -0.674089        -0.921312
 H        -2.497630        -2.233916         2.592628
 H        -3.845584        -1.179634         1.947817
 H        -2.966314        -2.375552         0.791537
 H        -1.318119        -0.294219         2.137990
 H        -2.914499         0.857538        -0.242699
 H        -0.748035         1.755385        -1.124899
 H        -0.601666         1.860368         0.754070
 H         0.836623        -2.338460         0.790735
 H        -0.708609        -3.369767         0.318151
 H         0.523894        -2.580939        -0.880757
