19
Iteration:  1460charge 0 multiplicity 1
 C        -2.819712        -1.609359         1.608147
 C        -1.719475        -0.615481         1.221188
 C        -2.026160         0.301733         0.081109
 C        -0.704425         1.207228        -0.122426
 C         0.272010         0.042045         0.056708
 O         1.503414         0.121758         0.037605
 C        -0.677225        -1.217445         0.137743
 C        -0.326077        -2.684017         0.082829
 O        -1.569505        -0.740376        -0.936916
 H        -2.699253        -2.552454         2.106180
 H        -3.464576        -1.037789         2.277714
 H        -3.398748        -1.746089         0.696079
 H        -1.221508        -0.157128         2.122502
 H        -2.912334         0.844027        -0.416620
 H        -0.777278         1.450085        -1.117135
 H        -0.625068         2.023320         0.569877
 H         0.063156        -3.069246         1.061574
 H        -1.160478        -3.270681        -0.294318
 H         0.501669        -2.716798        -0.673908
