19
Iteration:   613charge 0 multiplicity 1
 C        -2.803735        -1.564848         1.804156
 C        -1.801086        -0.582205         1.147118
 C        -2.062160         0.313843        -0.141442
 C        -0.779874         1.154828        -0.089405
 C         0.286935         0.017264         0.062472
 O         1.461162        -0.086244         0.183752
 C        -0.675635        -1.143632         0.088052
 C        -0.144768        -2.482296         0.097207
 O        -1.582734        -0.795993        -1.051325
 H        -2.447521        -2.148779         2.721558
 H        -3.779943        -1.062333         2.013278
 H        -3.158877        -2.226220         0.957746
 H        -1.432205         0.047990         1.997387
 H        -2.979622         0.712930        -0.447244
 H        -0.596223         1.537595        -1.120424
 H        -0.785238         1.933410         0.604096
 H         0.222072        -2.822730         1.062905
 H        -0.860403        -3.201679        -0.295455
 H         0.757053        -2.253235        -0.508165
