19
Iteration:  2068charge 0 multiplicity 1
 C        -2.864007        -1.668603         1.705041
 C        -1.845461        -0.589178         1.225324
 C        -2.025948         0.350014         0.060546
 C        -0.687507         1.211302        -0.003451
 C         0.338963         0.069284         0.043749
 O         1.517727        -0.165894        -0.017618
 C        -0.746533        -1.160046         0.149750
 C        -0.132056        -2.504892        -0.033667
 O        -1.710412        -0.673992        -1.019942
 H        -3.976453        -1.469964         1.572334
 H        -2.600333        -2.652599         1.168133
 H        -2.410432        -1.819532         2.702762
 H        -1.494870        -0.111969         2.111982
 H        -2.921134         0.799156         0.036428
 H        -0.572126         1.846732        -0.825144
 H        -0.481669         1.875544         0.874116
 H         0.430978        -2.810791         0.895889
 H        -0.821879        -3.392027        -0.161365
 H         0.704013        -2.359412        -0.825746
