19
Iteration:   950
 C        -2.910246        -1.548168         1.569424
 C        -1.719457        -0.658634         1.260826
 C        -1.904702         0.287205        -0.048353
 C        -0.684459         1.154485        -0.108292
 C         0.296043         0.041376         0.094193
 O         1.501972         0.203955         0.153516
 C        -0.710724        -1.192789         0.185425
 C        -0.303025        -2.614323        -0.079306
 O        -1.639836        -0.844102        -0.904479
 H        -2.660704        -2.087107         2.509348
 H        -3.768272        -0.944517         1.856384
 H        -3.149631        -2.291186         0.811438
 H        -1.186820        -0.276626         2.135799
 H        -2.856949         0.784443        -0.240198
 H        -0.550855         1.595908        -1.195312
 H        -0.654644         1.905745         0.587747
 H         0.587073        -2.700509         0.508492
 H        -0.933349        -3.415757         0.381418
 H        -0.149500        -2.991073        -1.097411
