19
Iteration:  3160charge 0 multiplicity 1
 C        -2.986384        -1.530570         1.463320
 C        -1.823909        -0.622186         1.225728
 C        -1.939577         0.352154        -0.056427
 C        -0.733441         1.187187        -0.080241
 C         0.317636        -0.012352         0.053976
 O         1.511940         0.014468         0.037314
 C        -0.636264        -1.186834         0.236614
 C        -0.092018        -2.585858         0.156819
 O        -1.678112        -0.801345        -0.874097
 H        -3.568744        -1.734556         0.582740
 H        -2.684751        -2.423220         1.958124
 H        -3.773719        -1.049523         2.052092
 H        -1.214566        -0.315136         2.073473
 H        -2.968921         0.798070        -0.430646
 H        -0.796534         1.782948        -1.007517
 H        -0.449513         1.963490         0.690930
 H         0.981550        -2.562619         0.389695
 H        -0.689269        -3.289283         0.729345
 H        -0.217641        -2.839299        -0.918189
