19
Iteration:  2022
 C        -2.727790        -1.539612         1.627962
 C        -1.640109        -0.626412         1.196644
 C        -1.992053         0.297380         0.098723
 C        -0.694457         1.218546        -0.072285
 C         0.288658        -0.007138         0.000150
 O         1.512950         0.176528         0.150547
 C        -0.691760        -1.289006         0.117291
 C        -0.348249        -2.720670        -0.030744
 O        -1.740696        -0.734797        -0.951180
 H        -3.556692        -0.910841         1.970293
 H        -3.168227        -1.931189         0.648903
 H        -2.448432        -2.381189         2.289047
 H        -1.055041        -0.209487         2.010051
 H        -3.012116         0.670977         0.013964
 H        -0.892526         1.840711        -0.959020
 H        -0.479821         1.961384         0.744054
 H        -0.214636        -3.327951         0.848223
 H        -1.189019        -3.092182        -0.575991
 H         0.560826        -2.719249        -0.703937
