19
Iteration:  1655
 C        -2.909002        -1.560395         1.606993
 C        -1.765959        -0.613996         1.199731
 C        -2.012806         0.319962         0.015254
 C        -0.686023         1.163498        -0.101161
 C         0.282107         0.066182         0.086444
 O         1.459911        -0.022531         0.049066
 C        -0.713860        -1.198889         0.179922
 C        -0.106570        -2.585857         0.053476
 O        -1.629857        -0.741526        -0.945198
 H        -2.426601        -2.508655         1.756181
 H        -3.261332        -1.300815         2.606843
 H        -3.782332        -1.665131         0.930232
 H        -1.375895        -0.015111         1.973633
 H        -2.988998         0.871815        -0.240612
 H        -0.651103         1.503309        -1.130946
 H        -0.538915         2.028427         0.639765
 H         0.782966        -2.683499         0.615418
 H        -0.813143        -3.278324         0.411790
 H        -0.050512        -2.851887        -0.987173
