19
Iteration:  4857charge 0 multiplicity 1
 C        -2.863222        -1.533554         1.558845
 C        -1.637899        -0.672958         1.124616
 C        -1.995937         0.361118         0.014459
 C        -0.717771         1.209572        -0.158153
 C         0.274100         0.011443         0.144931
 O         1.475640         0.006936         0.228834
 C        -0.683039        -1.160089         0.032412
 C        -0.239249        -2.637589         0.041196
 O        -1.691110        -0.750455        -0.916228
 H        -3.264867        -2.176965         0.738099
 H        -2.706018        -2.183100         2.526394
 H        -3.723128        -0.934433         2.011994
 H        -0.914697        -0.239903         1.935317
 H        -2.960845         0.797030        -0.053542
 H        -0.637605         1.633153        -1.190354
 H        -0.447498         2.134747         0.381419
 H         0.180959        -2.844323         1.123171
 H        -1.039298        -3.368630        -0.081744
 H         0.544741        -2.893751        -0.764503
