19
Iteration:   513
 C        -2.864580        -1.532182         1.477408
 C        -1.850119        -0.541171         1.149244
 C        -1.995474         0.281208        -0.102810
 C        -0.726837         1.103496         0.050905
 C         0.240152        -0.050166         0.076675
 O         1.448203        -0.019981        -0.111634
 C        -0.796785        -1.177818         0.270035
 C        -0.121724        -2.441514         0.258076
 O        -1.503231        -0.801246        -0.929795
 H        -2.386434        -2.440583         1.972786
 H        -3.708665        -1.292759         2.191198
 H        -3.463646        -1.962181         0.607129
 H        -1.413904        -0.000151         2.017448
 H        -2.864061         0.694944        -0.447685
 H        -0.490347         1.888811        -0.778910
 H        -0.703576         1.606730         0.935313
 H         0.715836        -2.334705         0.991907
 H        -0.673216        -3.351043         0.391912
 H         0.480034        -2.413313        -0.654459
