19
Iteration:  4143charge 0 multiplicity 1
 C        -2.895355        -1.462101         1.569347
 C        -1.683199        -0.704687         1.255725
 C        -1.975129         0.337665         0.010937
 C        -0.718739         1.178352        -0.132002
 C         0.248475         0.012895         0.040923
 O         1.485269        -0.083162         0.145148
 C        -0.747007        -1.172024         0.092191
 C        -0.085696        -2.539893         0.033342
 O        -1.707719        -0.769357        -0.916251
 H        -3.451328        -1.563571         0.653630
 H        -2.515519        -2.328052         2.080829
 H        -3.535776        -1.040620         2.336877
 H        -1.185597        -0.261529         2.043443
 H        -2.984570         0.763640        -0.161001
 H        -0.668957         1.793296        -0.982188
 H        -0.762420         1.973681         0.604262
 H         0.449134        -2.650241         0.980874
 H        -0.830289        -3.305540        -0.088689
 H         0.551984        -2.588161        -0.849498
