19
Iteration:  3963
 C        -2.943926        -1.584636         1.594845
 C        -1.803026        -0.675305         1.193521
 C        -1.949602         0.299018         0.059712
 C        -0.680199         1.192930        -0.147661
 C         0.367063         0.098471        -0.015100
 O         1.549639         0.096125         0.128542
 C        -0.676122        -1.211660         0.161782
 C        -0.295138        -2.629582         0.041908
 O        -1.619035        -0.749441        -0.930950
 H        -3.329206        -2.143400         0.760468
 H        -2.833567        -2.372674         2.336445
 H        -3.842485        -1.111002         2.038576
 H        -1.332204        -0.178900         2.051974
 H        -2.943188         0.744876         0.028411
 H        -0.604945         1.739234        -1.055302
 H        -0.625879         1.851851         0.684780
 H         0.614368        -2.759352         0.606667
 H        -0.902499        -3.456122         0.437641
 H        -0.082041        -2.765483        -0.995180
