19
Iteration:  2139
 C        -3.028929        -1.579052         1.451178
 C        -1.696587        -0.729407         1.278378
 C        -1.971407         0.287683         0.142571
 C        -0.657420         1.198813        -0.082739
 C         0.309586         0.028381         0.041170
 O         1.535628         0.170023        -0.133026
 C        -0.677372        -1.183651         0.228949
 C        -0.283750        -2.673371         0.053696
 O        -1.613255        -0.716836        -0.799525
 H        -3.661693        -0.967040         2.088272
 H        -3.599637        -1.753720         0.558744
 H        -2.752620        -2.516374         1.916961
 H        -1.207816        -0.497952         2.282211
 H        -3.044252         0.758894        -0.075354
 H        -0.642501         1.762389        -1.077972
 H        -0.286342         1.860714         0.709255
 H         0.811796        -2.800687         0.214737
 H        -0.744746        -3.421755         0.685552
 H        -0.326129        -2.899653        -1.013662
