19
Iteration:   213
 C        -2.966380        -1.676931         1.705101
 C        -1.877724        -0.685161         1.166904
 C        -1.929854         0.332713        -0.164025
 C        -0.731965         1.246336        -0.002330
 C         0.191424         0.095588         0.087909
 O         1.378136        -0.064633        -0.061010
 C        -0.687434        -1.141531         0.183365
 C        -0.038886        -2.534602         0.201484
 O        -1.424787        -0.705320        -1.007953
 H        -2.568911        -2.492266         2.350165
 H        -3.657049        -1.113250         2.350872
 H        -3.605162        -2.161985         0.936368
 H        -1.433967        -0.060083         2.014091
 H        -2.930821         0.600492        -0.573148
 H        -0.598523         1.640159        -0.940826
 H        -0.867472         1.986737         0.876750
 H         0.350878        -2.792084         1.186398
 H        -0.831446        -3.255152         0.142449
 H         0.613189        -2.705899        -0.666023
