19
Iteration:  1993charge 0 multiplicity 1
 C        -2.819731        -1.573155         1.649943
 C        -1.672916        -0.622523         1.248147
 C        -1.944527         0.284834         0.088786
 C        -0.646061         1.221135        -0.160530
 C         0.324852         0.061433         0.061236
 O         1.485569         0.111396         0.172710
 C        -0.684927        -1.204270        -0.014634
 C        -0.295420        -2.587062        -0.083777
 O        -1.774032        -0.852879        -0.871788
 H        -3.293772        -1.277197         2.610945
 H        -3.607615        -1.285985         0.904597
 H        -2.497321        -2.605773         1.553520
 H        -1.096929        -0.227776         2.101227
 H        -2.927400         0.686906        -0.010620
 H        -0.706640         1.649687        -1.124143
 H        -0.518449         2.004161         0.624484
 H        -0.089821        -3.027795         0.953161
 H        -1.189099        -3.173294        -0.471042
 H         0.636405        -2.880618        -0.698170
