19
Iteration:   109charge 0 multiplicity 1
 C        -2.790465        -1.567823         1.644489
 C        -1.768939        -0.585949         1.107555
 C        -1.972096         0.362177        -0.124087
 C        -0.764530         1.248100        -0.091890
 C         0.283021         0.050194         0.085088
 O         1.447685        -0.066736         0.264236
 C        -0.745108        -1.128407         0.108559
 C        -0.132179        -2.515714         0.050974
 O        -1.682100        -0.933488        -0.969421
 H        -2.142782        -1.992832         2.421449
 H        -3.637586        -1.090480         2.154020
 H        -3.106370        -2.362477         0.962455
 H        -1.330305        -0.076824         1.964445
 H        -2.873270         0.866708        -0.444259
 H        -0.707723         1.888846        -1.058365
 H        -0.903304         1.872158         0.721876
 H         0.772193        -2.524092         0.711964
 H        -0.830309        -3.395820         0.143886
 H         0.416972        -2.578322        -0.935502
