19
Iteration:  1885charge 0 multiplicity 1
 C        -2.979955        -1.548764         1.465019
 C        -1.656499        -0.763454         1.213998
 C        -1.943384         0.306348         0.055213
 C        -0.709838         1.216523        -0.152377
 C         0.336598         0.038043         0.099165
 O         1.488091         0.189887        -0.060062
 C        -0.614224        -1.225784         0.238439
 C        -0.349376        -2.636944         0.124408
 O        -1.595511        -0.766558        -0.852379
 H        -2.796017        -2.621349         1.551846
 H        -3.331086        -1.315537         2.469234
 H        -3.803132        -1.387455         0.806664
 H        -1.371703        -0.357751         2.237125
 H        -3.022298         0.714156        -0.018810
 H        -0.534451         1.562874        -1.186388
 H        -0.713172         2.058281         0.586578
 H         0.727600        -2.721255         0.357057
 H        -0.833170        -3.290766         0.826941
 H        -0.366500        -3.078229        -0.834465
