19
Iteration:  1813charge 0 multiplicity 1
 C        -2.894141        -1.605028         1.631916
 C        -1.756751        -0.585981         1.176420
 C        -1.976609         0.299624         0.051560
 C        -0.740689         1.230639        -0.050238
 C         0.237801         0.003500        -0.016467
 O         1.473203        -0.173218         0.034961
 C        -0.754500        -1.183544         0.146242
 C        -0.034836        -2.440726         0.126846
 O        -1.672836        -0.703593        -1.050238
 H        -2.537381        -2.469694         2.303907
 H        -3.486304        -1.008553         2.376302
 H        -3.671814        -1.869479         0.872583
 H        -1.213736        -0.339500         2.075084
 H        -3.042364         0.665932         0.087641
 H        -0.736283         1.932017        -0.995936
 H        -0.483989         1.849987         0.808212
 H         0.760213        -2.396608         0.944798
 H        -0.707989        -3.309587         0.475803
 H         0.575738        -2.689609        -0.787368
