19
Iteration:  1770charge 0 multiplicity 1
 C        -2.815060        -1.496082         1.622111
 C        -1.676775        -0.608101         1.248112
 C        -1.962678         0.244932         0.020511
 C        -0.682219         1.178041        -0.097272
 C         0.300511        -0.013974         0.081167
 O         1.480792         0.148326         0.063239
 C        -0.744298        -1.223225         0.191762
 C        -0.314743        -2.592808        -0.007827
 O        -1.651645        -0.846243        -0.949095
 H        -2.540336        -1.861165         2.659877
 H        -3.761438        -0.912299         1.556025
 H        -2.843796        -2.337523         0.892680
 H        -1.372806         0.085953         2.073871
 H        -2.945839         0.674195        -0.126092
 H        -0.701141         1.722069        -1.100710
 H        -0.575992         1.777175         0.779188
 H        -0.002320        -3.268019         0.862426
 H        -1.078718        -3.192590        -0.621860
 H         0.530139        -2.425384        -0.776767
