19
Iteration:  4025
 C        -3.033316        -1.621781         1.552703
 C        -1.790091        -0.699654         1.167099
 C        -2.056074         0.353905         0.026367
 C        -0.652816         1.239315        -0.076608
 C         0.323975        -0.025030         0.060189
 O         1.499992        -0.100304        -0.007483
 C        -0.673472        -1.150477         0.129894
 C        -0.044823        -2.494239         0.130722
 O        -1.669838        -0.716219        -0.905806
 H        -3.681626        -1.659399         0.660128
 H        -2.713984        -2.563243         2.098437
 H        -3.570056        -1.007608         2.301174
 H        -1.393355        -0.268608         2.179331
 H        -3.012878         0.926009         0.006126
 H        -0.480098         1.866709        -1.075561
 H        -0.536714         1.903297         0.840292
 H         0.755712        -2.451438         0.971215
 H        -0.785550        -3.287197         0.307038
 H         0.483929        -2.663025        -0.841414
