19
Iteration:  2731
 C        -2.863057        -1.666093         1.609788
 C        -1.847663        -0.608969         1.158880
 C        -1.943979         0.383596        -0.054060
 C        -0.676097         1.222059        -0.102938
 C         0.304304         0.027200         0.037173
 O         1.454058        -0.106312         0.159990
 C        -0.754762        -1.169527         0.118169
 C        -0.137987        -2.531572         0.149568
 O        -1.655127        -0.710955        -1.009696
 H        -3.397488        -2.191988         0.759406
 H        -2.319793        -2.340580         2.291812
 H        -3.610346        -1.078464         2.203145
 H        -1.247965        -0.241268         2.019241
 H        -2.870658         0.888240        -0.285191
 H        -0.706135         1.501049        -1.147232
 H        -0.555329         2.171154         0.571030
 H         0.099054        -2.521005         1.238610
 H        -0.704180        -3.458822         0.042595
 H         0.785944        -2.572269        -0.376709
