19
Iteration:  2284charge 0 multiplicity 1
 C        -2.840643        -1.539305         1.655389
 C        -1.658027        -0.653885         1.208846
 C        -1.959262         0.268390         0.039322
 C        -0.631278         1.180528        -0.204225
 C         0.286743         0.023462         0.042029
 O         1.506507         0.193376         0.246037
 C        -0.720230        -1.294079         0.137360
 C        -0.321559        -2.637810        -0.070000
 O        -1.705235        -0.756790        -0.972065
 H        -2.510551        -2.547601         1.667977
 H        -3.253119        -1.358787         2.651350
 H        -3.640528        -1.574002         0.959332
 H        -1.283043        -0.067761         2.104889
 H        -3.068216         0.721157         0.118425
 H        -0.665797         1.528222        -1.201221
 H        -0.401178         2.104726         0.450923
 H        -0.014582        -2.875143         0.936470
 H        -1.129952        -3.328723        -0.256643
 H         0.509395        -2.788788        -0.792719
