19
Iteration:     5
 C        -2.855504        -1.563248         1.506804
 C        -1.753159        -0.619797         1.192550
 C        -2.000022         0.306070        -0.017924
 C        -0.776403         1.178320        -0.125932
 C         0.242517         0.047090         0.064729
 O         1.488367         0.060090         0.114560
 C        -0.716245        -1.167946         0.147436
 C        -0.133364        -2.565960         0.090639
 O        -1.636697        -0.827609        -0.876149
 H        -2.368115        -2.334850         2.123207
 H        -3.624727        -0.961380         2.010265
 H        -3.225968        -2.068363         0.599924
 H        -1.364305        -0.268431         2.200016
 H        -2.985925         0.725463        -0.280629
 H        -0.443701         1.659513        -1.045264
 H        -0.540757         1.982628         0.725220
 H         0.593620        -2.714900         0.869389
 H        -0.826824        -3.398275         0.285003
 H         0.291824        -2.752589        -0.874693
