19
Iteration:  2442charge 0 multiplicity 1
 C        -2.877011        -1.680196         1.524736
 C        -1.853717        -0.531456         1.147901
 C        -1.934455         0.334434        -0.047648
 C        -0.730289         1.148773         0.005740
 C         0.305459        -0.030194         0.032516
 O         1.494098        -0.018844        -0.014372
 C        -0.660790        -1.139485         0.224145
 C        -0.192765        -2.479442         0.188467
 O        -1.639381        -0.761807        -0.960110
 H        -3.383174        -2.142830         0.635296
 H        -2.366816        -2.495632         2.118425
 H        -3.641322        -1.185279         2.164471
 H        -1.695073        -0.161986         2.221598
 H        -2.798158         0.902473        -0.221365
 H        -0.580791         1.730104        -0.989798
 H        -0.544477         1.772480         0.876410
 H         0.619798        -2.555786         0.947643
 H        -0.969566        -3.149584         0.445026
 H         0.237049        -2.730879        -0.798335
