19
Iteration:   297
 C        -2.990115        -1.602972         1.424056
 C        -1.692335        -0.701651         1.311097
 C        -1.934851         0.305237         0.144373
 C        -0.740188         1.091233        -0.321710
 C         0.353246         0.056118        -0.007791
 O         1.553931         0.245827         0.176836
 C        -0.713321        -1.197384         0.145496
 C        -0.236989        -2.583539         0.108067
 O        -1.649320        -0.804335        -0.857589
 H        -2.841377        -2.498189         2.006359
 H        -3.818085        -1.050176         1.863626
 H        -3.251304        -1.865174         0.410701
 H        -1.315305        -0.376799         2.245531
 H        -2.997092         0.632106         0.042022
 H        -0.919177         1.444962        -1.315827
 H        -0.463711         2.010004         0.127128
 H         0.572985        -2.532280         0.871696
 H        -1.028358        -3.249933         0.464233
 H         0.277819        -3.014327        -0.734184
