19
Iteration:  1615charge 0 multiplicity 1
 C        -2.894254        -1.457606         1.505852
 C        -1.724523        -0.684370         1.184184
 C        -1.936182         0.215869         0.074287
 C        -0.757054         1.183989        -0.027366
 C         0.365272         0.066951         0.032439
 O         1.527185         0.166122         0.021838
 C        -0.633153        -1.217582         0.144256
 C        -0.264418        -2.662656         0.105226
 O        -1.687301        -0.810507        -0.878036
 H        -2.741841        -2.355858         2.136364
 H        -3.677250        -0.786584         1.898714
 H        -3.326934        -1.917502         0.603711
 H        -1.360084        -0.204169         2.142798
 H        -2.932355         0.665673        -0.188331
 H        -0.825733         1.755028        -0.960248
 H        -0.439967         1.947765         0.664676
 H         0.760780        -3.125755         0.247243
 H        -1.056167        -3.272128         0.627876
 H        -0.470271        -2.767243        -0.972036
