19
Iteration:  1135charge 0 multiplicity 1
 C        -2.927614        -1.649688         1.509646
 C        -1.729086        -0.647263         1.216207
 C        -1.954050         0.345791         0.094971
 C        -0.781813         1.232962        -0.099651
 C         0.218125        -0.019672         0.087990
 O         1.438836        -0.143956        -0.000372
 C        -0.697731        -1.138427         0.180453
 C        -0.074392        -2.516410         0.157078
 O        -1.622411        -0.629767        -0.979901
 H        -2.489263        -2.450914         2.184393
 H        -3.836437        -1.337822         2.069216
 H        -3.048712        -2.167142         0.547895
 H        -1.485435         0.000853         2.088592
 H        -2.910008         0.751680        -0.016558
 H        -0.693578         1.632860        -1.210612
 H        -0.283786         2.067329         0.379146
 H         0.619667        -2.455548         0.975862
 H        -0.774838        -3.311244         0.429255
 H         0.423379        -2.676513        -0.800001
