19
Iteration:    17charge 0 multiplicity 1
 C        -2.793752        -1.508684         1.340075
 C        -1.712115        -0.538135         1.229009
 C        -2.038268         0.363063        -0.013968
 C        -0.723251         1.182022        -0.172629
 C         0.314796         0.047106         0.103544
 O         1.487341         0.153634         0.162117
 C        -0.699775        -1.231872         0.214534
 C        -0.172122        -2.645395         0.010922
 O        -1.742495        -0.966450        -0.756697
 H        -2.420879        -2.320350         2.010561
 H        -3.606592        -1.186371         2.024239
 H        -3.263988        -1.907782         0.433698
 H        -1.332043        -0.148395         2.226402
 H        -3.057213         0.710232        -0.278398
 H        -0.523540         1.638089        -1.191377
 H        -0.593404         1.953279         0.744456
 H         0.797966        -2.652247         0.519557
 H        -0.928044        -3.398565         0.267669
 H         0.130273        -2.738474        -1.045897
