19
Iteration:  1693
 C        -2.802646        -1.552860         1.611119
 C        -1.732936        -0.539233         1.172260
 C        -2.014303         0.350934         0.021230
 C        -0.682714         1.231042        -0.041364
 C         0.266601         0.092930        -0.028299
 O         1.423770        -0.132374         0.148600
 C        -0.756408        -1.152470         0.072816
 C        -0.066581        -2.590646         0.082302
 O        -1.766969        -0.819202        -0.986683
 H        -2.225553        -2.452488         1.995907
 H        -3.425553        -1.250988         2.480286
 H        -3.384128        -1.820163         0.714071
 H        -1.154068        -0.171759         2.086571
 H        -2.941714         0.905435        -0.072072
 H        -0.661814         1.756958        -1.044602
 H        -0.588333         2.005478         0.693417
 H         0.514711        -2.631504         1.073543
 H        -0.798794        -3.484159         0.064736
 H         0.842324        -2.749503        -0.543680
