19
Iteration:  3986charge 0 multiplicity 1
 C        -2.887665        -1.465870         1.444574
 C        -1.707833        -0.621220         1.214264
 C        -1.980923         0.360952         0.054075
 C        -0.731480         1.188483        -0.073347
 C         0.296391        -0.036226         0.171799
 O         1.456890         0.061748         0.038489
 C        -0.657910        -1.187502         0.147202
 C        -0.151497        -2.592104         0.006577
 O        -1.679216        -0.849800        -0.860263
 H        -3.468906        -1.675126         0.565669
 H        -2.897279        -2.417688         1.934037
 H        -3.596972        -0.960634         2.125423
 H        -1.318333        -0.157788         2.153484
 H        -3.016634         0.557101        -0.231557
 H        -0.354572         1.531776        -0.977807
 H        -0.627462         1.872938         0.724864
 H         0.705487        -2.767905         0.608553
 H        -0.825464        -3.366949         0.421575
 H         0.039049        -2.802084        -1.029617
