19
Iteration:   245charge 0 multiplicity 1
 C        -2.871909        -1.599629         1.567613
 C        -1.885144        -0.588215         1.129004
 C        -1.994956         0.303473        -0.091900
 C        -0.734737         1.161963         0.084177
 C         0.266501         0.028325         0.036228
 O         1.483986        -0.034946        -0.038562
 C        -0.811441        -1.159185         0.195279
 C        -0.088733        -2.482630         0.218753
 O        -1.512148        -0.806675        -0.976902
 H        -2.531984        -2.084555         2.492965
 H        -3.845548        -1.159846         1.779683
 H        -3.060371        -2.400472         0.828537
 H        -1.508947        -0.018308         2.024935
 H        -3.040121         0.677643        -0.417634
 H        -0.646407         1.827983        -0.676169
 H        -0.728922         2.009031         0.863635
 H         0.767759        -2.499789         0.952209
 H        -0.672779        -3.391591         0.240539
 H         0.393081        -2.505750        -0.793075
