19
Iteration:  4393charge 0 multiplicity 1
 C        -2.882022        -1.646487         1.529380
 C        -1.783424        -0.546011         1.166623
 C        -1.995955         0.338610         0.008151
 C        -0.642202         1.214734        -0.014188
 C         0.295846         0.020387         0.180630
 O         1.520609        -0.018894        -0.061942
 C        -0.720980        -1.154631         0.133830
 C        -0.267635        -2.600349         0.118507
 O        -1.607419        -0.761247        -0.920756
 H        -3.081088        -2.325850         0.750048
 H        -2.454614        -2.037204         2.382742
 H        -3.724556        -1.216391         1.866154
 H        -1.403458         0.029319         2.013478
 H        -2.992305         0.759596        -0.130195
 H        -0.575117         1.627640        -0.950088
 H        -0.735594         1.859950         0.830571
 H         0.119457        -2.862197         1.085770
 H        -1.084862        -3.114287        -0.308598
 H         0.510699        -2.791092        -0.571056
