19
Iteration:  3968
 C        -2.967537        -1.557268         1.557233
 C        -1.772403        -0.688014         1.219880
 C        -1.968363         0.287501        -0.009082
 C        -0.675433         1.168846        -0.083537
 C         0.367296         0.103525         0.006530
 O         1.537715         0.091463         0.108852
 C        -0.682631        -1.226527         0.188655
 C        -0.258903        -2.619239         0.050775
 O        -1.645583        -0.770851        -0.909865
 H        -3.337740        -2.092055         0.633785
 H        -2.637237        -2.409119         2.218318
 H        -3.733142        -0.912406         2.043582
 H        -1.182628        -0.218585         2.129929
 H        -2.898629         0.950735        -0.031220
 H        -0.781873         1.711235        -1.084099
 H        -0.613005         2.087185         0.619884
 H         0.745592        -2.790186         0.524850
 H        -1.025572        -3.359637         0.385094
 H        -0.080524        -2.761029        -1.061669
