19
Iteration:  3412
 C        -2.948438        -1.494899         1.589517
 C        -1.766854        -0.618801         1.250179
 C        -1.878471         0.294839        -0.061262
 C        -0.745413         1.247681        -0.011760
 C         0.236962         0.050932         0.081201
 O         1.487510        -0.056272         0.074235
 C        -0.741501        -1.130715         0.134471
 C        -0.088175        -2.566277         0.028896
 O        -1.643570        -0.854806        -0.968829
 H        -3.308310        -2.301707         0.938897
 H        -2.725341        -1.828208         2.632661
 H        -3.857489        -0.861616         1.677743
 H        -1.205220        -0.146307         2.071973
 H        -2.946449         0.610856        -0.258686
 H        -0.591499         1.600648        -0.974332
 H        -0.617589         1.876785         0.779333
 H         0.699355        -2.801086         0.783985
 H        -0.952102        -3.365737         0.223003
 H         0.414050        -2.640691        -0.973348
