19
Iteration:  2689
 C        -3.001508        -1.415940         1.501945
 C        -1.746573        -0.605038         1.178659
 C        -1.995928         0.203849        -0.046078
 C        -0.746262         1.214657        -0.019705
 C         0.302373         0.141444         0.129418
 O         1.496981         0.041957         0.029646
 C        -0.709102        -1.209306         0.165539
 C        -0.140894        -2.688146         0.102998
 O        -1.560979        -0.849509        -0.925168
 H        -3.772711        -1.416573         0.734933
 H        -2.672272        -2.449226         1.582922
 H        -3.370728        -1.134029         2.492389
 H        -1.465468        -0.008250         2.038771
 H        -2.926133         0.676363        -0.296769
 H        -0.630968         1.856670        -0.774411
 H        -0.641861         1.727502         0.894084
 H         0.731295        -2.721047         0.783918
 H        -0.897031        -3.415303         0.257683
 H         0.357082        -2.933469        -0.815825
