19
Iteration:  1139
 C        -2.913536        -1.653223         1.528826
 C        -1.730888        -0.616842         1.203324
 C        -1.959159         0.362022         0.126707
 C        -0.775397         1.206442        -0.116778
 C         0.196321        -0.049433         0.091758
 O         1.425499        -0.157744        -0.005333
 C        -0.713329        -1.113893         0.175676
 C        -0.032519        -2.515982         0.158591
 O        -1.598007        -0.615821        -1.000413
 H        -2.455975        -2.423674         2.113483
 H        -3.806952        -1.407818         2.085672
 H        -3.170319        -2.113987         0.551864
 H        -1.446386        -0.024532         2.100876
 H        -3.061569         0.771356        -0.052255
 H        -0.634252         1.539592        -1.102883
 H        -0.505837         2.084052         0.460835
 H         0.569785        -2.477409         1.124451
 H        -0.813776        -3.260040         0.296184
 H         0.455455        -2.777123        -0.781808
