19
Iteration:  1776charge 0 multiplicity 1
 C        -2.846669        -1.531260         1.635093
 C        -1.710134        -0.552926         1.240709
 C        -1.931966         0.260399         0.028473
 C        -0.646758         1.174515        -0.071890
 C         0.242079        -0.035341         0.115539
 O         1.484955         0.124745         0.041921
 C        -0.768447        -1.200175         0.117383
 C        -0.221118        -2.614186        -0.007333
 O        -1.660787        -0.832978        -0.965691
 H        -2.598105        -1.919504         2.604987
 H        -3.755775        -0.946270         1.735981
 H        -3.016429        -2.405124         1.028072
 H        -1.294506         0.092769         2.003029
 H        -3.024389         0.652951        -0.035432
 H        -0.739209         1.670631        -1.031892
 H        -0.536075         1.963206         0.760076
 H         0.034903        -2.994583         0.949507
 H        -0.961154        -3.202967        -0.472599
 H         0.531559        -2.630846        -0.734246
