19
Iteration:  1181
 C        -2.918793        -1.579645         1.583173
 C        -1.815210        -0.569658         1.217024
 C        -2.001247         0.316547        -0.059765
 C        -0.659596         1.156319         0.046283
 C         0.328143         0.043193         0.022389
 O         1.514114         0.061922        -0.021992
 C        -0.664712        -1.133837         0.092319
 C        -0.159989        -2.590380         0.133911
 O        -1.692830        -0.874343        -0.945328
 H        -2.503196        -2.532376         1.937440
 H        -3.390951        -1.220743         2.498451
 H        -3.525759        -1.775761         0.675978
 H        -1.306167        -0.203795         2.158228
 H        -2.950282         0.999226        -0.196509
 H        -0.453664         2.045400        -0.657774
 H        -0.769960         1.760002         0.953334
 H        -0.170970        -3.015331         1.174499
 H        -0.917700        -3.132550        -0.371632
 H         0.775239        -2.676259        -0.403451
