19
Iteration:  2076charge 0 multiplicity 1
 C        -2.868881        -1.692242         1.665050
 C        -1.828930        -0.492245         1.250045
 C        -1.959668         0.404374         0.036531
 C        -0.675015         1.149837         0.060551
 C         0.263172         0.009189         0.045466
 O         1.464263        -0.151720        -0.044710
 C        -0.722887        -1.191461         0.075992
 C        -0.087157        -2.490177        -0.010791
 O        -1.707712        -0.706597        -0.959999
 H        -3.906131        -1.441401         1.605051
 H        -2.661315        -2.624568         1.094248
 H        -2.740436        -1.881045         2.742615
 H        -1.404404        -0.060790         2.179840
 H        -2.963176         0.852319        -0.271640
 H        -0.694552         1.895436        -0.771614
 H        -0.381293         1.777512         0.946834
 H         0.549213        -2.528771         0.832504
 H        -0.697746        -3.321266        -0.136226
 H         0.570505        -2.343347        -0.902335
