19
Iteration:  1248charge 0 multiplicity 1
 C        -2.884394        -1.548975         1.526274
 C        -1.767144        -0.630279         1.278038
 C        -1.962471         0.329357         0.056729
 C        -0.749496         1.188177        -0.101232
 C         0.303151         0.011907         0.004084
 O         1.567392         0.014492         0.065158
 C        -0.672522        -1.176990         0.166628
 C        -0.166076        -2.568280         0.060464
 O        -1.746853        -0.766863        -0.927273
 H        -2.551110        -2.117441         2.402242
 H        -3.851011        -1.142026         1.862033
 H        -2.937036        -2.343279         0.751884
 H        -1.460751        -0.194753         2.279860
 H        -2.998988         0.918160        -0.133361
 H        -0.686032         1.585052        -1.185375
 H        -0.615611         1.860968         0.729874
 H         0.016749        -3.227028         0.944529
 H        -0.813971        -3.158954        -0.581502
 H         0.786124        -2.437786        -0.443123
