19
Iteration:  4801charge 0 multiplicity 1
 C        -2.781884        -1.572351         1.647509
 C        -1.765415        -0.587331         1.200403
 C        -1.963536         0.343918        -0.129656
 C        -0.687166         1.231216        -0.157925
 C         0.269945         0.073553         0.202799
 O         1.475289        -0.078340         0.264216
 C        -0.735039        -1.149402         0.115154
 C        -0.242756        -2.585768        -0.000907
 O        -1.679242        -0.784264        -1.020425
 H        -3.637125        -1.891946         1.016098
 H        -2.138446        -2.558743         1.772970
 H        -3.187946        -1.358815         2.699114
 H        -1.226080         0.026391         2.024991
 H        -2.828631         0.903621        -0.424908
 H        -0.725409         1.344517        -1.225842
 H        -0.594043         2.097543         0.454009
 H         0.357533        -2.879146         0.962283
 H        -1.024506        -3.273577         0.047348
 H         0.363996        -2.691673        -1.026311
