19
Iteration:  3613charge 0 multiplicity 1
 C        -2.810530        -1.586470         1.622590
 C        -1.745834        -0.650389         1.208916
 C        -1.959474         0.399150         0.012328
 C        -0.712543         1.203038        -0.242778
 C         0.268520         0.026489         0.036538
 O         1.466394        -0.005296         0.247763
 C        -0.721766        -1.179022         0.119191
 C        -0.200061        -2.618529         0.032127
 O        -1.694341        -0.754816        -0.939008
 H        -3.126821        -2.268448         0.814182
 H        -2.555146        -2.291624         2.421739
 H        -3.699220        -1.100497         2.060277
 H        -1.175891        -0.091449         2.008531
 H        -2.920427         0.820271        -0.133643
 H        -0.604594         1.773217        -1.220574
 H        -0.186622         1.926931         0.341214
 H         0.209596        -2.833004         1.066404
 H        -1.051429        -3.233243        -0.231296
 H         0.562853        -2.709480        -0.804136
