19
Iteration:   317
 C        -2.898964        -1.589768         1.523495
 C        -1.719322        -0.677774         1.183304
 C        -1.952029         0.339542        -0.033775
 C        -0.680042         1.192982        -0.263863
 C         0.238024         0.071306         0.040076
 O         1.428443         0.164642         0.218478
 C        -0.589683        -1.194830         0.269319
 C        -0.176808        -2.631746         0.081001
 O        -1.701270        -0.830422        -0.860944
 H        -2.594095        -2.561526         1.931597
 H        -3.504235        -1.128688         2.336085
 H        -3.603297        -1.822933         0.731986
 H        -1.313447        -0.206705         2.067590
 H        -2.880642         0.695663        -0.266084
 H        -0.554334         1.436264        -1.396296
 H        -0.418541         2.105648         0.129017
 H         0.632315        -3.000420         0.692957
 H        -1.017854        -3.333239         0.124082
 H         0.193063        -2.681179        -0.929357
