19
Iteration:    75
 C        -2.839913        -1.506630         1.761234
 C        -1.744492        -0.644023         1.149577
 C        -1.999509         0.286554        -0.136289
 C        -0.755047         1.187565        -0.076350
 C         0.227492         0.057331         0.129495
 O         1.406896         0.025502         0.268807
 C        -0.679261        -1.231973         0.053502
 C        -0.060162        -2.632789         0.079779
 O        -1.662232        -0.728100        -1.143459
 H        -2.332479        -2.244606         2.429844
 H        -3.588298        -0.941343         2.339052
 H        -3.337974        -2.143285         1.010273
 H        -1.249342        -0.142371         1.992858
 H        -2.941143         0.781694        -0.347303
 H        -0.532221         1.687511        -1.139053
 H        -0.817765         1.996450         0.584913
 H         0.910949        -2.579548         0.655030
 H        -0.618642        -3.397299         0.665733
 H         0.026982        -3.005218        -1.007365
