19
Iteration:  3202charge 0 multiplicity 1
 C        -2.948435        -1.655823         1.395124
 C        -1.683389        -0.636789         1.168941
 C        -1.896173         0.298217         0.035927
 C        -0.696164         1.218580        -0.116597
 C         0.298159         0.025911         0.071225
 O         1.464874         0.048561         0.005811
 C        -0.693784        -1.162695         0.252924
 C        -0.273714        -2.585824         0.240167
 O        -1.624077        -0.719908        -0.913721
 H        -3.311185        -1.994192         0.407921
 H        -2.482332        -2.445031         1.960432
 H        -3.740527        -1.164323         2.017214
 H        -1.359227        -0.154104         2.168333
 H        -2.920895         0.842922        -0.064176
 H        -0.663236         1.628151        -1.090406
 H        -0.686040         2.057760         0.499339
 H         0.851461        -2.848495         0.477329
 H        -0.796175        -3.105307         1.070004
 H        -0.390010        -3.129158        -0.767959
