19
Iteration:  2628charge 0 multiplicity 1
 C        -2.937098        -1.673079         1.421893
 C        -1.723769        -0.690383         1.229091
 C        -1.981715         0.440822        -0.022759
 C        -0.766218         1.259337        -0.107296
 C         0.298303         0.046704         0.066957
 O         1.506762        -0.092102         0.056343
 C        -0.692717        -1.137626         0.189339
 C        -0.152237        -2.591338         0.226081
 O        -1.639635        -0.725974        -0.914332
 H        -3.401347        -2.095633         0.508561
 H        -2.643445        -2.493415         2.150450
 H        -3.714928        -1.112956         1.980765
 H        -1.273273        -0.166163         2.131296
 H        -2.894388         0.969484        -0.357388
 H        -0.726183         1.749535        -1.248425
 H        -0.640722         2.148474         0.639122
 H         0.898570        -2.538161         0.651038
 H        -0.739859        -3.330122         0.817734
 H        -0.042313        -2.935250        -0.858396
