19
Iteration:  1608charge 0 multiplicity 1
 C        -2.886181        -1.482675         1.482916
 C        -1.668072        -0.636033         1.220410
 C        -1.993667         0.287404         0.066835
 C        -0.768392         1.214428         0.013237
 C         0.288501         0.013372         0.014758
 O         1.550033         0.135598         0.024069
 C        -0.570190        -1.163559         0.163311
 C        -0.291563        -2.678983         0.069270
 O        -1.667241        -0.848391        -0.917260
 H        -2.857628        -2.228511         2.338326
 H        -3.761622        -0.817132         1.713827
 H        -3.266988        -1.966825         0.557450
 H        -1.127779        -0.257818         2.157298
 H        -2.974903         0.655845         0.031453
 H        -0.770675         1.613305        -1.057242
 H        -0.762635         2.013874         0.786107
 H         0.734492        -2.910616         0.439043
 H        -0.950153        -3.367385         0.682937
 H        -0.473788        -3.012806        -1.002541
