19
Iteration:  2115
 C        -2.997095        -1.532364         1.490014
 C        -1.698675        -0.688651         1.271791
 C        -1.917548         0.277676         0.197861
 C        -0.766578         1.213598         0.048910
 C         0.287930         0.001767         0.025842
 O         1.531268         0.013517        -0.117889
 C        -0.665969        -1.158565         0.106234
 C        -0.142110        -2.598471         0.055677
 O        -1.678334        -0.731530        -0.898787
 H        -3.819749        -0.757649         1.410896
 H        -3.194659        -2.187894         0.643168
 H        -2.925628        -2.158790         2.404042
 H        -1.276619        -0.198099         2.181616
 H        -2.855367         0.909584         0.076121
 H        -0.929931         1.734539        -0.936529
 H        -0.679726         1.980345         0.812664
 H         0.911958        -2.825188         0.467379
 H        -0.839012        -3.375568         0.572312
 H        -0.004125        -2.852160        -0.998084
