19
Iteration:  1391
 C        -2.876405        -1.582813         1.614551
 C        -1.715762        -0.761623         1.210211
 C        -1.980357         0.359512         0.007500
 C        -0.695872         1.170891        -0.140428
 C         0.264492         0.044739         0.053271
 O         1.432564        -0.053168         0.082652
 C        -0.750364        -1.193768         0.154293
 C        -0.078733        -2.525084         0.052390
 O        -1.687606        -0.653304        -0.922177
 H        -2.816189        -2.145631         2.548784
 H        -3.745417        -0.961869         1.801387
 H        -3.092351        -2.293926         0.828404
 H        -1.301851        -0.290067         2.111275
 H        -2.940487         0.925629        -0.128951
 H        -0.618659         1.424571        -1.230652
 H        -0.546087         1.979529         0.581442
 H         0.814136        -2.408927         0.615246
 H        -0.656310        -3.316546         0.571721
 H         0.205426        -2.789482        -0.963099
