19
Iteration:  1934
 C        -2.837700        -1.566881         1.661683
 C        -1.783344        -0.635182         1.140186
 C        -1.975622         0.327485        -0.025319
 C        -0.672208         1.170761        -0.018774
 C         0.289046         0.023909         0.034249
 O         1.479202        -0.101732         0.067330
 C        -0.760446        -1.099848         0.152426
 C        -0.095461        -2.438130         0.076583
 O        -1.744888        -0.822561        -0.980426
 H        -2.522764        -2.108951         2.574449
 H        -3.745479        -0.934064         1.826543
 H        -3.250524        -2.287830         0.899162
 H        -1.183551        -0.313204         1.979969
 H        -2.927272         0.837476        -0.195541
 H        -0.516447         1.891709        -0.898286
 H        -0.632252         1.721750         0.936888
 H         0.862019        -2.490087         0.602681
 H        -0.690101        -3.314835         0.384939
 H         0.110104        -2.641562        -1.032578
