19
Iteration:  1563
 C        -2.907407        -1.707856         1.639858
 C        -1.796621        -0.617874         1.197953
 C        -2.037610         0.445854         0.029729
 C        -0.706707         1.129574        -0.083594
 C         0.333192         0.009915         0.056707
 O         1.520473        -0.114437         0.006262
 C        -0.734871        -1.151079         0.175996
 C        -0.026649        -2.462638         0.086012
 O        -1.737705        -0.683625        -0.992484
 H        -2.584783        -2.161807         2.649659
 H        -3.957765        -1.325242         1.793106
 H        -3.160520        -2.596607         0.996423
 H        -1.614458         0.093917         2.103495
 H        -2.858657         1.051557        -0.152510
 H        -0.401047         1.686749        -1.066631
 H        -0.357604         1.866672         0.660130
 H         0.837172        -2.575550         0.823946
 H        -0.789088        -3.275064         0.440545
 H         0.109197        -2.784758        -0.981852
