19
Iteration:  3452charge 0 multiplicity 1
 C        -3.023496        -1.514848         1.429061
 C        -1.804310        -0.629036         1.257651
 C        -1.886550         0.320845         0.092367
 C        -0.635275         1.158679        -0.108431
 C         0.255990         0.023488         0.004581
 O         1.497427         0.081548        -0.000178
 C        -0.692384        -1.254004         0.225212
 C        -0.130166        -2.610236         0.104537
 O        -1.638898        -0.786834        -0.842041
 H        -3.184626        -1.958723         0.445373
 H        -2.852210        -2.391631         2.105192
 H        -3.852744        -0.838436         1.761870
 H        -1.445050        -0.313759         2.252267
 H        -2.769740         0.963968        -0.138451
 H        -0.771835         1.566053        -1.143922
 H        -0.651710         2.022133         0.661830
 H         0.909683        -2.531408         0.458034
 H        -0.718267        -3.296057         0.688951
 H        -0.172746        -2.915504        -0.946644
