19
Iteration:  4842
 C        -2.783681        -1.537645         1.633464
 C        -1.659648        -0.645729         1.164282
 C        -1.983795         0.332465        -0.003017
 C        -0.713363         1.193706        -0.102260
 C         0.303861         0.009658        -0.031730
 O         1.492590         0.005682         0.330629
 C        -0.725812        -1.202742        -0.008975
 C        -0.256099        -2.611133         0.100851
 O        -1.733623        -0.747429        -1.037091
 H        -3.339970        -1.897087         0.732823
 H        -2.419885        -2.447032         2.214292
 H        -3.442495        -0.774664         2.168680
 H        -1.320446        -0.182155         2.155247
 H        -2.990102         0.825824        -0.158000
 H        -0.613689         1.665813        -1.092552
 H        -0.627224         1.984269         0.638993
 H         0.214283        -2.731278         1.020785
 H        -1.128747        -3.180479        -0.162855
 H         0.575752        -2.898474        -0.520644
