19
Iteration:  4005charge 0 multiplicity 1
 C        -2.971398        -1.449086         1.456151
 C        -1.701805        -0.599748         1.253159
 C        -1.945328         0.312006         0.043867
 C        -0.727562         1.178056        -0.007587
 C         0.263382         0.014704        -0.019060
 O         1.431584        -0.046077         0.045834
 C        -0.757475        -1.195145         0.225862
 C        -0.029218        -2.585100         0.050360
 O        -1.646871        -0.790214        -0.908644
 H        -3.522802        -1.539506         0.514232
 H        -2.587962        -2.452532         1.826092
 H        -3.696993        -1.213377         2.252746
 H        -1.302384        -0.201027         2.118839
 H        -2.849651         0.881034        -0.176171
 H        -0.827631         1.751961        -1.001006
 H        -0.536130         1.801597         0.880354
 H         0.827153        -2.673518         0.759294
 H        -0.649009        -3.456019         0.320741
 H         0.250349        -2.666885        -0.997255
