19
Iteration:  3538
 C        -2.952917        -1.535688         1.611508
 C        -1.824930        -0.609409         1.193549
 C        -2.048429         0.299277         0.003703
 C        -0.659402         1.148004        -0.113514
 C         0.294141        -0.042715         0.098831
 O         1.522020        -0.017438         0.088948
 C        -0.717874        -1.137502         0.130274
 C        -0.121124        -2.565664         0.061366
 O        -1.610209        -0.740508        -0.984342
 H        -3.502015        -2.078068         0.852985
 H        -2.601076        -2.175407         2.396700
 H        -3.718675        -0.968353         2.148285
 H        -1.154639        -0.186121         1.983604
 H        -3.044293         0.678799        -0.130019
 H        -0.420240         1.877323        -0.987199
 H        -0.669560         1.897083         0.771668
 H         0.890507        -2.492963         0.458809
 H        -0.660862        -3.208387         0.680281
 H        -0.111633        -2.933221        -0.957024
