19
Iteration:  1116charge 0 multiplicity 1
 C        -2.900153        -1.648643         1.452523
 C        -1.751280        -0.661166         1.201199
 C        -2.003043         0.366952         0.061509
 C        -0.643612         1.217066        -0.088884
 C         0.299081         0.032938        -0.001510
 O         1.533208         0.001543         0.026643
 C        -0.767273        -1.103944         0.199574
 C        -0.123100        -2.559496         0.112224
 O        -1.703196        -0.795637        -0.841068
 H        -2.797335        -2.252257         2.344788
 H        -3.766455        -1.039032         1.712806
 H        -3.184234        -2.250515         0.569846
 H        -1.333725        -0.407208         2.214711
 H        -3.005531         0.850358        -0.306321
 H        -0.432717         1.853020        -0.990495
 H        -0.752498         1.899053         0.671357
 H         0.807578        -2.576325         0.743331
 H        -0.831558        -3.282135         0.493887
 H        -0.079609        -2.851986        -0.936233
