19
Iteration:  1424charge 0 multiplicity 1
 C        -2.755625        -1.618007         1.634556
 C        -1.765094        -0.628426         1.197806
 C        -2.039587         0.384699        -0.053865
 C        -0.682090         1.210767        -0.015950
 C         0.262818         0.032867        -0.034254
 O         1.451096        -0.160611         0.105068
 C        -0.768305        -1.111393         0.129347
 C        -0.072372        -2.504358         0.079886
 O        -1.772477        -0.772174        -0.935385
 H        -2.369972        -2.243045         2.428119
 H        -3.713120        -1.141719         1.743863
 H        -2.896908        -2.178176         0.726774
 H        -1.362366         0.019640         1.944637
 H        -2.880442         0.969723        -0.474685
 H        -0.391907         1.923755        -0.793422
 H        -0.591166         1.906948         0.835977
 H         0.508957        -2.487294         0.943692
 H        -0.714452        -3.398288         0.148448
 H         0.614716        -2.686103        -0.744068
