19
Iteration:  1068
 C        -2.956050        -1.503756         1.632933
 C        -1.698762        -0.710508         1.142178
 C        -1.981746         0.303097        -0.022146
 C        -0.775718         1.253404        -0.105271
 C         0.287291         0.019641         0.178624
 O         1.465388         0.131475         0.046581
 C        -0.610777        -1.240970         0.164411
 C        -0.269287        -2.665434         0.014882
 O        -1.494520        -0.775087        -0.938860
 H        -2.867847        -2.169391         2.529171
 H        -3.769737        -0.814857         1.980284
 H        -3.429276        -2.093036         0.833500
 H        -1.137853        -0.476219         2.081047
 H        -2.946109         0.629215        -0.122325
 H        -0.793954         1.848998        -1.062265
 H        -0.682601         1.933833         0.746921
 H         0.768558        -2.699908         0.147573
 H        -0.738914        -3.356267         0.750639
 H        -0.635850        -3.005052        -0.952975
