19
Iteration:  3558charge 0 multiplicity 1
 C        -2.959268        -1.482464         1.601192
 C        -1.703139        -0.622618         1.230746
 C        -1.912919         0.313843        -0.023084
 C        -0.757867         1.184255        -0.075684
 C         0.250174         0.043391         0.008750
 O         1.474518         0.005561         0.164083
 C        -0.696522        -1.227669         0.175949
 C        -0.151519        -2.641108        -0.029631
 O        -1.626894        -0.790403        -0.910274
 H        -3.335621        -2.110596         0.756833
 H        -2.891342        -1.986955         2.555274
 H        -3.810213        -0.816339         1.706969
 H        -1.084282        -0.121932         2.110910
 H        -2.826305         0.764297        -0.275021
 H        -0.790204         1.557204        -1.173298
 H        -0.448181         2.012212         0.560338
 H         0.840400        -2.588508         0.513503
 H        -0.802924        -3.401545         0.385642
 H        -0.010304        -2.605201        -1.129842
