19
Iteration:  4917charge 0 multiplicity 1
 C        -3.017853        -1.543479         1.489553
 C        -1.739735        -0.617353         1.196514
 C        -1.961616         0.339860        -0.024436
 C        -0.677907         1.243857         0.076993
 C         0.271645         0.005875         0.146532
 O         1.489603        -0.052698        -0.077560
 C        -0.699280        -1.185560         0.242858
 C        -0.095933        -2.573684         0.111704
 O        -1.642859        -0.797589        -0.944953
 H        -3.244515        -2.086424         0.595685
 H        -2.908983        -2.228436         2.282480
 H        -3.785655        -0.828976         1.557428
 H        -1.377876        -0.140104         2.079120
 H        -2.908440         0.939407        -0.122257
 H        -0.630277         1.560368        -1.020970
 H        -0.613910         2.104641         0.845921
 H         0.907227        -2.632425         0.559733
 H        -0.800670        -3.477989         0.410398
 H         0.094392        -2.682648        -0.978347
