19
Iteration:  4550
 C        -2.792818        -1.609389         1.700179
 C        -1.769068        -0.663527         1.126052
 C        -1.904592         0.396120        -0.055620
 C        -0.698951         1.222380        -0.081751
 C         0.255849        -0.082653         0.046606
 O         1.418267        -0.038133         0.230282
 C        -0.710925        -1.206371         0.044385
 C        -0.193369        -2.587287         0.065660
 O        -1.693113        -0.661191        -1.012274
 H        -3.116628        -2.359892         1.006129
 H        -2.469592        -1.970106         2.670286
 H        -3.672214        -1.024169         1.937255
 H        -1.372343        -0.095220         2.018634
 H        -2.896171         0.862322        -0.218206
 H        -0.404224         1.747985        -1.088918
 H        -0.656621         2.162681         0.639408
 H         0.503017        -2.633379         0.909502
 H        -0.950771        -3.445596         0.073779
 H         0.424187        -2.727408        -0.859144
