19
Iteration:  1055charge 0 multiplicity 1
 C        -2.959000        -1.552831         1.694312
 C        -1.791203        -0.785939         1.156357
 C        -1.932673         0.238786         0.011107
 C        -0.724419         1.211860        -0.055210
 C         0.274160         0.124145         0.099010
 O         1.469410         0.034762         0.084951
 C        -0.715664        -1.158951         0.143372
 C        -0.217996        -2.570429         0.047662
 O        -1.492832        -0.742272        -1.026712
 H        -2.509213        -2.245000         2.403545
 H        -3.505529        -0.734790         2.218623
 H        -3.623032        -2.051627         0.963124
 H        -1.394120        -0.191507         1.994263
 H        -2.851571         0.643036        -0.335449
 H        -0.639735         1.449815        -1.098931
 H        -0.688685         2.208913         0.560815
 H         0.862292        -2.780335         0.026245
 H        -0.704065        -3.151510         0.842516
 H        -0.534805        -2.945119        -0.942060
