19
Iteration:  3213charge 0 multiplicity 1
 C        -2.892733        -1.625489         1.471235
 C        -1.816961        -0.690116         1.217977
 C        -1.974221         0.348978         0.046067
 C        -0.731367         1.232352        -0.117629
 C         0.292228         0.090142         0.039417
 O         1.518684        -0.003957         0.018054
 C        -0.654010        -1.179618         0.186432
 C        -0.222689        -2.648248         0.272433
 O        -1.577412        -0.678005        -0.999978
 H        -3.320511        -2.148898         0.592094
 H        -2.686823        -2.448916         2.160587
 H        -3.764684        -1.093327         1.949224
 H        -1.467498        -0.119670         2.165042
 H        -3.059515         0.789133        -0.009467
 H        -0.586085         1.561063        -1.103665
 H        -0.528072         1.923386         0.640325
 H         0.936495        -2.569788         0.480611
 H        -0.842382        -3.294236         0.939700
 H        -0.507817        -3.056936        -0.774484
