19
Iteration:   129
 C        -2.826235        -1.609447         1.612681
 C        -1.738836        -0.621832         1.230590
 C        -2.074682         0.282242        -0.044838
 C        -0.690061         1.144609        -0.227416
 C         0.253481         0.012733         0.105835
 O         1.424292         0.043520         0.204281
 C        -0.657825        -1.150726         0.169597
 C        -0.119659        -2.578036         0.079307
 O        -1.670122        -0.707196        -0.947091
 H        -2.499681        -2.426002         2.291258
 H        -3.767816        -1.061852         1.812919
 H        -2.976069        -2.055409         0.600224
 H        -1.438243        -0.077932         2.145159
 H        -3.083297         0.629833        -0.228697
 H        -0.459746         1.436539        -1.431313
 H        -0.499844         2.166550         0.199859
 H         0.548536        -2.793699         0.959566
 H        -0.977298        -3.281666         0.008556
 H         0.557478        -2.707381        -0.846974
