19
Iteration:  1252
 C        -2.869332        -1.571903         1.527809
 C        -1.770280        -0.591717         1.274198
 C        -1.960803         0.375819         0.056837
 C        -0.726766         1.145695        -0.095019
 C         0.295586         0.048870         0.005403
 O         1.555941        -0.012740         0.072777
 C        -0.680914        -1.192695         0.197996
 C        -0.133565        -2.564894         0.060037
 O        -1.796103        -0.787055        -0.964768
 H        -2.541868        -2.103551         2.438361
 H        -3.815892        -1.201044         1.897970
 H        -2.814889        -2.270455         0.718057
 H        -1.469572        -0.167428         2.231563
 H        -2.934656         0.866787        -0.250870
 H        -0.657139         1.740450        -0.942838
 H        -0.584493         1.865359         0.717603
 H         0.023116        -3.136722         0.964189
 H        -0.804545        -3.225433        -0.590245
 H         0.821714        -2.399658        -0.514754
