19
Iteration:  4653charge 0 multiplicity 1
 C        -2.945898        -1.599275         1.409061
 C        -1.697312        -0.608996         1.181524
 C        -1.903527         0.343910        -0.010211
 C        -0.703717         1.280466         0.031739
 C         0.249726         0.038849         0.004579
 O         1.498733        -0.047107        -0.017938
 C        -0.688809        -1.166411         0.185858
 C        -0.216206        -2.612269         0.200281
 O        -1.649653        -0.761113        -0.912508
 H        -3.635117        -2.043565         0.595023
 H        -2.513386        -2.541292         1.908883
 H        -3.608785        -1.146915         2.217399
 H        -1.312078        -0.060288         2.123339
 H        -2.862944         0.767653        -0.319599
 H        -0.750497         2.024708        -0.786473
 H        -0.616427         1.623046         1.071436
 H         0.340941        -2.676044         1.149038
 H        -1.051646        -3.299982         0.132557
 H         0.526174        -2.868191        -0.521062
