19
Iteration:  2776
 C        -2.824787        -1.556448         1.520073
 C        -1.668613        -0.545657         1.234017
 C        -1.925710         0.360254        -0.021923
 C        -0.708573         1.197769        -0.149156
 C         0.252427         0.005433         0.001079
 O         1.488539         0.059335         0.243387
 C        -0.699129        -1.216385         0.064290
 C        -0.291508        -2.599069         0.080132
 O        -1.669713        -0.855846        -0.869844
 H        -2.800759        -2.335364         0.723380
 H        -2.698600        -2.080524         2.474405
 H        -3.863292        -1.094938         1.504810
 H        -1.331985         0.026049         2.120294
 H        -2.891850         0.794272        -0.219473
 H        -0.607851         1.555002        -1.114574
 H        -0.592341         2.019500         0.615446
 H        -0.190547        -3.246349         0.967037
 H        -1.063307        -3.022719        -0.495075
 H         0.562146        -2.659691        -0.562218
