19
Iteration:  3037
 C        -2.819446        -1.617491         1.482371
 C        -1.649088        -0.639034         1.221159
 C        -1.974644         0.384576         0.010315
 C        -0.693158         1.200242        -0.314400
 C         0.275582         0.008104         0.052617
 O         1.504588         0.092176         0.249591
 C        -0.692639        -1.196082         0.109944
 C        -0.313605        -2.605232         0.131391
 O        -1.715658        -0.810097        -0.882974
 H        -3.421271        -1.809989         0.608387
 H        -2.605316        -2.571522         1.906672
 H        -3.480605        -1.143507         2.222571
 H        -1.259691        -0.148978         2.118006
 H        -2.995001         0.763677        -0.124994
 H        -0.543715         1.580200        -1.297968
 H        -0.258872         1.943153         0.391760
 H        -0.099797        -2.764963         1.218885
 H        -1.032744        -3.304619        -0.248136
 H         0.706335        -2.515235        -0.252790
