19
Iteration:  2065
 C        -2.848486        -1.656049         1.711510
 C        -1.843610        -0.650581         1.204694
 C        -2.040802         0.323980         0.060213
 C        -0.687453         1.245208        -0.018386
 C         0.329394         0.058338         0.040157
 O         1.549181        -0.160711        -0.008249
 C        -0.763008        -1.125082         0.178153
 C        -0.140163        -2.522427        -0.032442
 O        -1.705843        -0.661004        -1.019083
 H        -3.895546        -1.474773         1.617312
 H        -2.640415        -2.620114         1.187603
 H        -2.443307        -1.831235         2.710226
 H        -1.457187        -0.085243         2.080657
 H        -3.017145         0.921380         0.078737
 H        -0.522706         1.836464        -0.964720
 H        -0.573424         1.905135         0.893433
 H         0.349077        -2.858674         0.850393
 H        -0.818057        -3.301837        -0.235470
 H         0.679296        -2.463360        -0.790690
