19
Iteration:  1722charge 0 multiplicity 1
 C        -2.836708        -1.595565         1.630365
 C        -1.658727        -0.639558         1.230455
 C        -1.985923         0.355648         0.039872
 C        -0.674476         1.104096        -0.151363
 C         0.288678         0.028550        -0.012911
 O         1.522969         0.120955         0.149190
 C        -0.799495        -1.194149         0.137072
 C        -0.253779        -2.616657         0.041032
 O        -1.700438        -0.745886        -0.950740
 H        -2.525143        -2.175951         2.476612
 H        -3.714186        -1.005310         1.901397
 H        -3.083498        -2.198395         0.765270
 H        -0.999745        -0.370773         2.011840
 H        -2.997071         0.931019        -0.073196
 H        -0.756913         1.398018        -1.199431
 H        -0.516336         1.999925         0.533560
 H        -0.027514        -2.923394         1.042799
 H        -0.913102        -3.350788        -0.360444
 H         0.646183        -2.647366        -0.521591
