19
Iteration:  2650charge 0 multiplicity 1
 C        -3.015147        -1.519039         1.429806
 C        -1.853967        -0.644862         1.222770
 C        -1.984126         0.262288         0.076958
 C        -0.632638         1.144151        -0.129858
 C         0.336037         0.034460         0.091908
 O         1.519596         0.137837        -0.006656
 C        -0.684310        -1.225288         0.227057
 C        -0.195038        -2.628054         0.143614
 O        -1.552269        -0.763023        -0.874558
 H        -3.664706        -1.595073         0.540440
 H        -2.729657        -2.586744         1.655971
 H        -3.702246        -1.265853         2.252465
 H        -1.424423        -0.139402         2.144802
 H        -3.008498         0.637611        -0.155647
 H        -0.661817         1.675248        -1.215235
 H        -0.568597         2.049264         0.596364
 H         0.855128        -2.639454         0.523080
 H        -0.843649        -3.361748         0.703747
 H        -0.141302        -2.889879        -0.965004
