19
Iteration:  2288charge 0 multiplicity 1
 C        -2.862864        -1.566101         1.690548
 C        -1.649068        -0.677002         1.198038
 C        -1.943006         0.279504         0.042588
 C        -0.646878         1.169867        -0.199402
 C         0.275344         0.021067         0.030484
 O         1.508651         0.184570         0.244802
 C        -0.734250        -1.220421         0.088483
 C        -0.316876        -2.640550        -0.040211
 O        -1.701789        -0.738361        -0.966289
 H        -2.409030        -2.607134         1.543026
 H        -3.270045        -1.408166         2.684719
 H        -3.772132        -1.592928         1.007441
 H        -1.302780        -0.182307         2.115047
 H        -2.848204         0.771384        -0.058765
 H        -0.625510         1.583351        -1.240733
 H        -0.351101         2.027560         0.394261
 H         0.008876        -2.828983         0.997608
 H        -1.073342        -3.441853        -0.233547
 H         0.494265        -2.887548        -0.663921
