19
Iteration:  3378
 C        -2.842847        -1.576783         1.685483
 C        -1.777048        -0.582921         1.168824
 C        -1.978394         0.324826        -0.100830
 C        -0.732595         1.163284        -0.077881
 C         0.250588        -0.028382         0.073468
 O         1.503107        -0.010482         0.175767
 C        -0.758731        -1.205473         0.092286
 C        -0.183172        -2.591760         0.114152
 O        -1.625949        -0.679745        -1.057542
 H        -3.161232        -2.433683         1.109525
 H        -2.160311        -2.074829         2.433972
 H        -3.508757        -0.987141         2.357146
 H        -1.432960        -0.051143         2.101018
 H        -2.950974         0.835086        -0.460563
 H        -0.669140         1.573708        -1.023007
 H        -0.555029         1.931627         0.599008
 H         0.156730        -2.755853         1.181167
 H        -0.931231        -3.387770        -0.310740
 H         0.671124        -2.676592        -0.625586
