19
Iteration:   688
 C        -2.859017        -1.501914         1.474705
 C        -1.562050        -0.611633         1.225118
 C        -1.971749         0.320616        -0.025533
 C        -0.745801         1.211214        -0.207670
 C         0.286835         0.018733        -0.042453
 O         1.415451         0.177240         0.335225
 C        -0.653553        -1.258812         0.151723
 C        -0.219093        -2.631213         0.072953
 O        -1.701589        -0.913627        -0.903118
 H        -2.739456        -2.576128         1.549562
 H        -3.241935        -1.126658         2.403311
 H        -3.567475        -1.333969         0.662665
 H        -1.081974        -0.273593         2.161218
 H        -2.935762         0.698330        -0.107790
 H        -0.763567         1.641164        -1.303837
 H        -0.631100         1.938139         0.532622
 H         0.756093        -2.766363         0.611102
 H        -1.052352        -3.173088         0.538990
 H        -0.240424        -2.848405        -1.014083
