19
Iteration:  1687charge 0 multiplicity 1
 C        -2.803988        -1.544972         1.608121
 C        -1.660166        -0.561796         1.198488
 C        -2.028244         0.343962         0.001586
 C        -0.737022         1.267687        -0.033790
 C         0.288788         0.056212        -0.024273
 O         1.450911        -0.172610         0.144324
 C        -0.838265        -1.153974         0.076959
 C        -0.044193        -2.540171         0.107488
 O        -1.728037        -0.830609        -0.978200
 H        -2.353900        -2.506991         1.767998
 H        -3.439103        -1.331459         2.461600
 H        -3.499419        -1.857556         0.815428
 H        -1.155296         0.042832         1.949505
 H        -2.946394         0.929240        -0.292428
 H        -0.818304         1.847094        -0.923340
 H        -0.616656         2.130991         0.705436
 H         0.492275        -2.670855         1.003506
 H        -0.752319        -3.303768         0.146422
 H         0.623776        -2.677182        -0.783170
