19
Iteration:  4376
 C        -2.857306        -1.633169         1.568576
 C        -1.780967        -0.705070         1.215322
 C        -1.988642         0.398842        -0.004620
 C        -0.737167         1.235842        -0.055305
 C         0.280391        -0.007307         0.066252
 O         1.494982         0.038158        -0.047382
 C        -0.666806        -1.199502         0.271310
 C        -0.324062        -2.669310         0.120526
 O        -1.524716        -0.645116        -0.937126
 H        -3.127768        -2.250148         0.639694
 H        -2.570064        -2.332905         2.462794
 H        -3.882967        -1.051849         1.840787
 H        -1.351788        -0.236473         2.148726
 H        -2.881355         0.941481        -0.431739
 H        -0.507823         1.613981        -1.171094
 H        -0.445334         2.162544         0.514893
 H        -0.070894        -3.086109         1.144468
 H        -1.173959        -3.293871        -0.366743
 H         0.616185        -2.832329        -0.488818
