19
Iteration:  4796
 C        -2.821650        -1.610401         1.690158
 C        -1.770198        -0.547179         1.150212
 C        -1.965269         0.311630        -0.077578
 C        -0.688264         1.201291        -0.194035
 C         0.302713         0.097603         0.209173
 O         1.484824        -0.086842         0.256054
 C        -0.723350        -1.169363         0.148313
 C        -0.238544        -2.562504        -0.008214
 O        -1.671441        -0.760811        -1.015022
 H        -3.615814        -1.840075         0.939797
 H        -2.240102        -2.523130         1.720332
 H        -3.274565        -1.324159         2.627987
 H        -1.193966        -0.101380         2.000509
 H        -2.923755         0.817677        -0.412785
 H        -0.634637         1.379660        -1.299277
 H        -0.697177         2.128281         0.435863
 H         0.498337        -2.733433         0.729641
 H        -1.184344        -3.222721        -0.034262
 H         0.334812        -2.709529        -0.848671
