19
Iteration:  4439charge 0 multiplicity 1
 C        -2.940188        -1.492238         1.524110
 C        -1.783174        -0.667621         1.179632
 C        -1.908129         0.358085         0.058903
 C        -0.722347         1.200807        -0.028083
 C         0.281714         0.056075         0.076082
 O         1.456665        -0.089060         0.069010
 C        -0.738335        -1.212776         0.115529
 C        -0.041462        -2.572598         0.106396
 O        -1.697052        -0.726624        -0.978157
 H        -3.409883        -1.751005         0.601174
 H        -2.595595        -2.340117         2.068716
 H        -3.636312        -1.001402         2.132518
 H        -1.299029        -0.368289         2.149170
 H        -2.906994         0.824718        -0.042820
 H        -0.737138         1.374878        -1.117875
 H        -0.512446         1.868237         0.753114
 H         0.743749        -2.356050         0.786589
 H        -0.762261        -3.381162         0.342652
 H         0.410941        -2.894263        -0.795143
