19
Iteration:  4015charge 0 multiplicity 1
 C        -2.972629        -1.526944         1.510195
 C        -1.800911        -0.657883         1.247781
 C        -1.966580         0.371283         0.049074
 C        -0.722670         1.224612        -0.039830
 C         0.240443        -0.027175        -0.026469
 O         1.506681        -0.082163         0.032603
 C        -0.672169        -1.207826         0.188914
 C        -0.041023        -2.522549         0.112515
 O        -1.681615        -0.742735        -0.922770
 H        -3.605673        -1.710690         0.618414
 H        -2.832704        -2.626608         1.787348
 H        -3.551216        -0.933371         2.270106
 H        -1.350081        -0.278793         2.174929
 H        -2.971886         0.569719        -0.302217
 H        -0.562458         1.932592        -0.999876
 H        -0.454006         1.896442         0.828495
 H         0.911087        -2.572240         0.755731
 H        -0.733159        -3.367937         0.235883
 H         0.402542        -2.594088        -0.906514
