19
Iteration:  4529
 C        -2.828926        -1.604911         1.686842
 C        -1.716792        -0.659628         1.134353
 C        -2.032551         0.343163        -0.004084
 C        -0.700949         1.195649        -0.108562
 C         0.328514         0.066839         0.018241
 O         1.486692        -0.027446         0.269629
 C        -0.743834        -1.175322         0.009626
 C        -0.249720        -2.636208         0.098818
 O        -1.638543        -0.676547        -1.054362
 H        -3.211193        -2.251139         0.900180
 H        -2.562340        -2.067098         2.631870
 H        -3.764997        -1.192314         2.096829
 H        -1.075290        -0.311462         2.040854
 H        -3.037832         0.792440        -0.116401
 H        -0.691335         1.890725        -1.086573
 H        -0.321687         2.059707         0.643919
 H         0.670072        -2.552434         0.687052
 H        -1.022780        -3.393997         0.352181
 H         0.007347        -3.101752        -0.895236
