19
Iteration:  3699
 C        -2.981669        -1.524524         1.542713
 C        -1.748379        -0.686805         1.215819
 C        -1.986876         0.336650         0.056304
 C        -0.799973         1.174412        -0.088227
 C         0.333651        -0.011054         0.036456
 O         1.539100         0.047639         0.022744
 C        -0.735159        -1.192364         0.184321
 C        -0.171416        -2.584839         0.111662
 O        -1.566701        -0.731276        -0.909106
 H        -3.474521        -1.673983         0.519942
 H        -2.783823        -2.461081         2.169720
 H        -3.691631        -0.816345         2.062850
 H        -1.315127        -0.316362         2.115105
 H        -2.971937         0.727999        -0.096249
 H        -0.496401         1.288819        -1.141383
 H        -0.592745         1.992113         0.552788
 H         0.679639        -2.938794         0.872614
 H        -0.909229        -3.425424         0.127223
 H         0.308034        -2.611635        -0.981713
