19
Iteration:   283
 C        -2.906392        -1.542001         1.334473
 C        -1.684146        -0.688504         1.198812
 C        -1.988461         0.268551         0.116748
 C        -0.770381         1.238832        -0.164639
 C         0.347903         0.080199        -0.014556
 O         1.553227         0.181875         0.121331
 C        -0.703320        -1.246987         0.155880
 C        -0.187149        -2.663555         0.215951
 O        -1.717396        -0.809496        -0.841055
 H        -2.767892        -2.232196         2.185268
 H        -3.793638        -0.891869         1.552557
 H        -3.108020        -2.116467         0.422207
 H        -1.274853        -0.302852         2.142030
 H        -2.851983         0.828907        -0.016581
 H        -0.929963         1.231386        -1.319616
 H        -0.700746         2.080534         0.463024
 H         0.614661        -2.674629         0.941615
 H        -0.847352        -3.503703         0.541195
 H         0.221925        -2.769126        -0.777512
