19
Iteration:  4966
 C        -2.970186        -1.616931         1.462186
 C        -1.839727        -0.680875         1.155384
 C        -2.014124         0.342148        -0.004830
 C        -0.627738         1.248569         0.031682
 C         0.349458         0.036193         0.145674
 O         1.512693        -0.037172        -0.140863
 C        -0.696272        -1.134305         0.173407
 C        -0.154553        -2.557244         0.295148
 O        -1.658897        -0.724260        -0.988789
 H        -3.646740        -1.632201         0.532729
 H        -2.336171        -2.579532         1.553173
 H        -3.585114        -1.186038         2.333707
 H        -1.378589        -0.493961         2.212551
 H        -2.970015         0.857250        -0.158209
 H        -0.313921         1.794791        -0.838961
 H        -0.606567         1.630302         1.031822
 H         0.814782        -2.707930         0.812107
 H        -0.801436        -3.117588         0.869492
 H        -0.170042        -3.067267        -0.664161
