19
Iteration:  3325charge 0 multiplicity 1
 C        -2.815475        -1.566386         1.531063
 C        -1.669082        -0.555497         1.213408
 C        -1.998482         0.357598         0.025510
 C        -0.701855         1.138537        -0.212430
 C         0.310974         0.051335         0.013639
 O         1.504905         0.100829         0.260724
 C        -0.740360        -1.233582         0.113763
 C        -0.216836        -2.653943         0.087563
 O        -1.725318        -0.806679        -0.917508
 H        -3.352449        -1.573536         0.597652
 H        -2.449157        -2.590997         1.739729
 H        -3.487735        -1.201181         2.271651
 H        -1.365674         0.022749         2.136978
 H        -3.040866         0.838455        -0.055167
 H        -0.665011         1.588984        -1.195588
 H        -0.319463         1.978906         0.335439
 H        -0.008265        -3.058812         1.088615
 H        -1.150290        -3.263305        -0.320733
 H         0.568975        -2.940142        -0.627489
