19
Iteration:  2723
 C        -2.895421        -1.628149         1.608427
 C        -1.820573        -0.641327         1.136476
 C        -2.004481         0.330124        -0.044944
 C        -0.629434         1.188624        -0.145581
 C         0.237813         0.078271         0.094828
 O         1.479538        -0.076726         0.124272
 C        -0.778451        -1.196801         0.104433
 C        -0.126332        -2.517639         0.167825
 O        -1.605317        -0.689033        -1.004713
 H        -3.634022        -2.050781         0.945817
 H        -2.442007        -2.433042         2.179071
 H        -3.550995        -1.129239         2.336116
 H        -1.296157        -0.304553         2.035012
 H        -2.975508         0.775630        -0.189660
 H        -0.518746         1.661967        -1.053805
 H        -0.285872         1.794590         0.616691
 H         0.142884        -2.511914         1.282124
 H        -0.702004        -3.409942         0.135492
 H         0.703893        -2.534833        -0.540487
