19
Iteration:  4299
 C        -2.969550        -1.593849         1.568348
 C        -1.762414        -0.652695         1.202620
 C        -1.943681         0.371890         0.046250
 C        -0.710352         1.164679        -0.089027
 C         0.210216        -0.004140        -0.018375
 O         1.456925        -0.116197         0.094176
 C        -0.743722        -1.148501         0.114902
 C        -0.056005        -2.491388         0.093412
 O        -1.603382        -0.715449        -0.897493
 H        -3.672499        -1.722112         0.691524
 H        -2.715764        -2.523070         2.168051
 H        -3.506645        -0.860358         2.336591
 H        -1.236899        -0.225454         2.074381
 H        -2.886019         0.868308        -0.209147
 H        -0.641639         1.581286        -1.164970
 H        -0.422770         1.926128         0.636759
 H         0.656286        -2.586756         0.918339
 H        -0.865074        -3.284718        -0.079223
 H         0.567756        -2.661485        -0.810415
