19
Iteration:  3445
 C        -2.982855        -1.500148         1.422647
 C        -1.790360        -0.576536         1.270056
 C        -1.927976         0.325606         0.085287
 C        -0.693848         1.158176        -0.073730
 C         0.303057        -0.014949         0.002637
 O         1.486930         0.076475         0.009614
 C        -0.707087        -1.235506         0.234828
 C        -0.097697        -2.579531         0.091254
 O        -1.639285        -0.805473        -0.872448
 H        -3.305701        -1.962101         0.474114
 H        -3.052250        -2.226543         2.264637
 H        -3.862891        -0.849086         1.671841
 H        -1.405204        -0.404437         2.274872
 H        -2.980430         0.739420        -0.086024
 H        -0.616145         1.587801        -1.014841
 H        -0.416201         1.957559         0.522272
 H         0.941174        -2.747596         0.440199
 H        -0.728565        -3.464748         0.569669
 H        -0.141752        -2.927047        -0.978664
