19
Iteration:  2331
 C        -2.711375        -1.574136         1.559667
 C        -1.757339        -0.504828         1.241137
 C        -1.998407         0.319480        -0.043828
 C        -0.736667         1.156216        -0.033549
 C         0.251491         0.053421         0.071381
 O         1.432839        -0.164755         0.121067
 C        -0.767366        -1.173967         0.028289
 C        -0.161027        -2.504291         0.158141
 O        -1.676690        -0.731362        -0.993876
 H        -2.321881        -2.555440         1.146627
 H        -2.909422        -1.728133         2.603601
 H        -3.735907        -1.493919         1.102548
 H        -1.057326        -0.132642         2.057701
 H        -2.926015         0.759876        -0.263890
 H        -0.673889         1.788099        -0.955430
 H        -0.756924         1.863699         0.800688
 H         0.387682        -2.573853         1.083341
 H        -0.793762        -3.400887         0.002404
 H         0.480265        -2.491885        -0.664637
