19
Iteration:   706
 C        -2.886364        -1.549485         1.455101
 C        -1.711850        -0.622562         1.243551
 C        -1.952343         0.348054         0.048306
 C        -0.725867         1.168823        -0.313870
 C         0.266698         0.088820         0.101836
 O         1.445372         0.138450         0.242084
 C        -0.682127        -1.199509         0.099832
 C        -0.145149        -2.756245         0.060051
 O        -1.692075        -0.759032        -0.816211
 H        -2.469352        -2.509906         1.741542
 H        -3.586588        -1.281216         2.274550
 H        -3.529757        -1.671793         0.575338
 H        -1.355430        -0.107244         2.133073
 H        -2.975458         0.834420        -0.092384
 H        -0.616830         1.353026        -1.432581
 H        -0.475706         2.165494         0.192685
 H         0.886078        -2.958064         0.443221
 H        -0.693560        -3.459808         0.661805
 H         0.034118        -3.200339        -0.912246
