19
Iteration:  1089
 C        -2.867086        -1.457131         1.477738
 C        -1.786960        -0.542022         1.254459
 C        -1.972091         0.218191         0.030539
 C        -0.682708         1.128435         0.059573
 C         0.316441         0.048604        -0.003568
 O         1.500263         0.194722         0.050323
 C        -0.668462        -1.210768         0.164016
 C        -0.221457        -2.753773         0.022006
 O        -1.662181        -0.833595        -0.900021
 H        -2.877056        -2.114694         2.371008
 H        -3.803513        -0.846501         1.594272
 H        -2.946725        -2.048942         0.555828
 H        -1.345446        -0.084471         2.135755
 H        -2.836288         0.681353        -0.293208
 H        -0.731004         1.745536        -0.872290
 H        -0.675022         1.945744         0.860884
 H         0.825315        -2.813623         0.244877
 H        -0.748090        -3.483204         0.693260
 H        -0.450445        -2.973868        -1.024589
