19
Iteration:  1339
 C        -2.897044        -1.520459         1.568830
 C        -1.691234        -0.630050         1.223649
 C        -1.977034         0.329203         0.036647
 C        -0.660846         1.215692        -0.076466
 C         0.312359        -0.012835         0.085815
 O         1.525409         0.249827         0.066193
 C        -0.707516        -1.235285         0.162680
 C        -0.275772        -2.676237         0.039704
 O        -1.674563        -0.890899        -0.939710
 H        -2.643276        -2.555456         1.814237
 H        -3.576022        -1.142436         2.345422
 H        -3.481427        -1.658373         0.670321
 H        -1.281730        -0.011366         2.080157
 H        -3.070513         0.606297        -0.292781
 H        -0.322756         1.601905        -0.933521
 H        -0.614838         1.760399         0.828240
 H         0.710447        -2.969552         0.377674
 H        -1.105004        -3.342949         0.414724
 H        -0.229841        -2.704936        -1.090720
