19
Iteration:  3368
 C        -2.765703        -1.598930         1.708003
 C        -1.740724        -0.580031         1.132766
 C        -2.052355         0.343914        -0.068030
 C        -0.673305         1.263366        -0.082262
 C         0.285958        -0.007542         0.097133
 O         1.447918        -0.017891         0.194433
 C        -0.688363        -1.189209         0.073589
 C        -0.249351        -2.587178         0.124110
 O        -1.643238        -0.774072        -1.092888
 H        -3.363053        -2.075762         0.921294
 H        -2.235681        -2.342228         2.357378
 H        -3.625890        -1.265739         2.312585
 H        -1.283858         0.005715         2.012083
 H        -3.064111         0.850873        -0.319769
 H        -0.483306         1.609845        -1.053755
 H        -0.629081         2.096414         0.542046
 H         0.009381        -2.983099         1.143464
 H        -1.095303        -3.345451        -0.212796
 H         0.730967        -2.649558        -0.430997
