19
Iteration:   914charge 0 multiplicity 1
 C        -2.885461        -1.507970         1.672894
 C        -1.718947        -0.591902         1.195543
 C        -1.979592         0.279516        -0.057496
 C        -0.799397         1.218231        -0.012557
 C         0.226991         0.063421         0.055838
 O         1.419112        -0.048616         0.095031
 C        -0.647903        -1.200046         0.152328
 C        -0.115159        -2.617930        -0.015046
 O        -1.572980        -0.772777        -0.996635
 H        -2.454632        -2.177524         2.436694
 H        -3.793431        -0.976268         2.078605
 H        -3.328944        -2.084524         0.791867
 H        -1.357285         0.015546         2.087458
 H        -2.905721         0.660232        -0.421322
 H        -0.591900         1.880778        -0.811203
 H        -0.870842         1.792837         0.927445
 H         0.363578        -2.709046         0.975621
 H        -0.999958        -3.251956        -0.044419
 H         0.665726        -2.769186        -0.773036
