19
Iteration:  4004
 C        -2.973155        -1.449066         1.455205
 C        -1.698724        -0.596293         1.247527
 C        -1.951672         0.306165         0.041565
 C        -0.722173         1.172475        -0.009964
 C         0.260051         0.015604        -0.009083
 O         1.428608        -0.041443         0.044951
 C        -0.755766        -1.199606         0.221232
 C        -0.035881        -2.588891         0.047721
 O        -1.641875        -0.794887        -0.903069
 H        -3.510100        -1.512689         0.488686
 H        -2.550065        -2.447391         1.823701
 H        -3.698309        -1.193800         2.247019
 H        -1.280036        -0.170779         2.151165
 H        -2.855294         0.927547        -0.122314
 H        -0.828321         1.770810        -1.019193
 H        -0.550805         1.820556         0.897046
 H         0.852455        -2.654980         0.760617
 H        -0.665998        -3.447706         0.314570
 H         0.253664        -2.676960        -1.016020
