19
Iteration:  1598charge 0 multiplicity 1
 C        -2.902806        -1.530815         1.479120
 C        -1.583062        -0.620883         1.261897
 C        -2.017529         0.357376         0.065169
 C        -0.794806         1.189563        -0.040591
 C         0.327212         0.055053         0.046156
 O         1.474388         0.070381         0.017907
 C        -0.682357        -1.228929         0.150185
 C        -0.271199        -2.665127         0.044418
 O        -1.615100        -0.820979        -0.909717
 H        -2.790322        -2.113650         2.424152
 H        -3.712482        -0.794594         1.611396
 H        -2.961875        -2.196720         0.602789
 H        -1.182047        -0.108154         2.170956
 H        -3.013842         0.754736        -0.006914
 H        -0.521488         1.828622        -0.959746
 H        -0.814921         1.903025         0.842880
 H         0.745187        -2.701376         0.410265
 H        -0.970777        -3.110701         0.768585
 H        -0.199163        -3.166373        -0.949089
