19
Iteration:  1178charge 0 multiplicity 1
 C        -2.925196        -1.605213         1.587039
 C        -1.805702        -0.548881         1.201356
 C        -1.976946         0.318999        -0.053314
 C        -0.636432         1.183395         0.044560
 C         0.294246         0.039808         0.016038
 O         1.518509         0.035936        -0.019672
 C        -0.682038        -1.161768         0.099060
 C        -0.144994        -2.544586         0.142558
 O        -1.705600        -0.862312        -0.952231
 H        -2.470303        -2.590460         1.912734
 H        -3.450222        -1.230673         2.501454
 H        -3.567222        -1.838933         0.717690
 H        -1.294477        -0.156038         2.087154
 H        -2.893424         0.809336        -0.169032
 H        -0.435286         2.050081        -0.746022
 H        -0.884080         1.731029         1.064931
 H        -0.098685        -2.977467         1.124540
 H        -0.985386        -3.096818        -0.313702
 H         0.827694        -2.698042        -0.361827
