19
Iteration:   890
 C        -2.868386        -1.623798         1.620641
 C        -1.812582        -0.705632         1.134313
 C        -2.024512         0.409826         0.052140
 C        -0.653461         1.148076        -0.082745
 C         0.240794        -0.031928         0.118292
 O         1.481580         0.003132         0.033910
 C        -0.805857        -1.211376         0.164771
 C        -0.029569        -2.496914         0.143364
 O        -1.677933        -0.706485        -1.086522
 H        -2.370375        -2.351075         2.293604
 H        -3.493406        -0.952933         2.292782
 H        -3.670681        -2.006499         0.921560
 H        -1.295676        -0.390387         2.119809
 H        -2.976645         0.868549        -0.360767
 H        -0.540852         1.530547        -1.036114
 H        -0.326637         1.978704         0.694091
 H         0.131429        -2.574349         1.277123
 H        -0.635738        -3.332110        -0.174839
 H         0.985956        -2.415448        -0.280419
