19
Iteration:  1294charge 0 multiplicity 1
 C        -2.779529        -1.647239         1.615452
 C        -1.733415        -0.594434         1.164722
 C        -2.000790         0.350428         0.035494
 C        -0.756663         1.234012        -0.065308
 C         0.259320         0.002767         0.062088
 O         1.433684        -0.158671         0.091347
 C        -0.758161        -1.114173         0.124494
 C        -0.116170        -2.498863         0.112373
 O        -1.655127        -0.715289        -1.052132
 H        -2.446288        -2.501308         2.212230
 H        -3.550646        -1.140460         2.212510
 H        -3.219729        -2.076668         0.712450
 H        -1.105995        -0.141991         1.978473
 H        -2.950792         1.051662         0.002518
 H        -0.877167         1.674989        -0.989628
 H        -0.612483         1.876593         0.764150
 H         0.374393        -2.602468         1.083307
 H        -0.902857        -3.309688         0.165934
 H         0.684926        -2.677997        -0.643716
