19
Iteration:  3925
 C        -2.746280        -1.588819         1.637922
 C        -1.689259        -0.587902         1.118538
 C        -1.964023         0.299030        -0.019986
 C        -0.725744         1.199887        -0.075140
 C         0.264007         0.042242         0.154135
 O         1.455986        -0.042009         0.177753
 C        -0.755522        -1.154575         0.117307
 C        -0.281444        -2.624017         0.063190
 O        -1.692214        -0.733073        -1.037031
 H        -2.770339        -2.350831         0.843712
 H        -2.192761        -1.942259         2.482625
 H        -3.627483        -0.989893         1.700854
 H        -1.398446        -0.054680         1.926296
 H        -2.973556         0.725915        -0.203409
 H        -0.392110         1.792758        -0.993441
 H        -0.586871         1.936089         0.805133
 H         0.595359        -2.713610         0.749370
 H        -1.120140        -3.296039         0.134017
 H         0.247619        -2.776798        -0.922472
