19
Iteration:  4958charge 0 multiplicity 1
 C        -2.993726        -1.611489         1.484427
 C        -1.811801        -0.701642         1.139100
 C        -1.962614         0.380241         0.043628
 C        -0.679584         1.223276         0.099928
 C         0.300531         0.031039         0.021439
 O         1.522770        -0.051109        -0.115660
 C        -0.679549        -1.173800         0.173101
 C        -0.151582        -2.564962         0.336297
 O        -1.641636        -0.700998        -1.027083
 H        -3.633188        -1.776953         0.590229
 H        -2.725141        -2.615659         1.768180
 H        -3.617875        -1.241054         2.283438
 H        -1.333341        -0.255206         2.005253
 H        -2.889369         0.736205        -0.406631
 H        -0.432842         1.992834        -0.651972
 H        -0.477511         1.921807         0.925814
 H         0.924425        -2.522436         0.620059
 H        -0.899504        -3.240953         0.916510
 H        -0.043316        -2.994682        -0.626774
