19
Iteration:  1095charge 0 multiplicity 1
 C        -2.884958        -1.492844         1.465757
 C        -1.790131        -0.518071         1.235336
 C        -1.952470         0.239874         0.018247
 C        -0.657471         1.147501         0.039251
 C         0.310546         0.044417         0.025508
 O         1.509819         0.178866         0.039455
 C        -0.607682        -1.227867         0.141176
 C        -0.235496        -2.685042         0.047970
 O        -1.717290        -0.868213        -0.871499
 H        -2.844039        -2.134904         2.326872
 H        -3.862489        -1.014181         1.502007
 H        -3.025530        -2.060837         0.532226
 H        -1.354749        -0.116311         2.162977
 H        -2.959363         0.870284        -0.176947
 H        -0.827123         1.686602        -0.862916
 H        -0.486858         1.759025         0.984443
 H         0.891249        -2.655198         0.312270
 H        -0.782596        -3.441251         0.587567
 H        -0.384185        -2.995461        -1.007374
