19
Iteration:  3260
 C        -2.929599        -1.473796         1.581438
 C        -1.739477        -0.571698         1.165466
 C        -2.048561         0.340387        -0.097287
 C        -0.710555         1.235010         0.036095
 C         0.241646        -0.031643         0.125503
 O         1.476123        -0.058092         0.085769
 C        -0.749617        -1.168011         0.209806
 C        -0.008148        -2.564489         0.026076
 O        -1.643385        -0.873399        -0.974570
 H        -3.122125        -2.218541         0.839974
 H        -2.722875        -2.067804         2.490585
 H        -3.796031        -0.888037         1.778596
 H        -1.251460         0.135143         1.824324
 H        -3.022838         0.834099        -0.478784
 H        -0.470927         1.817712        -0.903267
 H        -0.631607         1.824804         0.997182
 H         0.955932        -2.574788         0.495854
 H        -0.701078        -3.394931         0.357869
 H        -0.001761        -2.798141        -1.020315
