19
Iteration:  1490charge 0 multiplicity 1
 C        -2.952481        -1.557674         1.600116
 C        -1.740134        -0.705367         1.189763
 C        -1.959545         0.333269         0.146538
 C        -0.636032         1.191295        -0.117039
 C         0.340666         0.094210         0.008918
 O         1.563333         0.262895         0.031133
 C        -0.671506        -1.249352         0.107630
 C        -0.312304        -2.674508         0.100671
 O        -1.663203        -0.897931        -0.937207
 H        -2.823991        -2.552378         2.028397
 H        -3.447974        -1.060560         2.433296
 H        -3.684586        -1.569449         0.815646
 H        -1.233033        -0.430899         2.079864
 H        -2.856495         0.908647        -0.149537
 H        -0.712678         1.731228        -1.067405
 H        -0.488045         2.048417         0.598370
 H        -0.071923        -3.077264         1.021164
 H        -1.125830        -3.235375        -0.327815
 H         0.455436        -2.819955        -0.650656
