19
Iteration:  1930
 C        -2.847121        -1.560957         1.635772
 C        -1.772662        -0.642949         1.130337
 C        -1.955912         0.313299        -0.030573
 C        -0.695133         1.161690        -0.038109
 C         0.252039         0.011219         0.055513
 O         1.509483        -0.079850         0.057038
 C        -0.754601        -1.124296         0.133860
 C        -0.097545        -2.458817         0.073978
 O        -1.738974        -0.807370        -0.950402
 H        -2.550976        -2.128588         2.516920
 H        -3.656681        -0.925896         1.977083
 H        -3.278385        -2.222215         0.905142
 H        -1.250327        -0.185463         2.026211
 H        -2.975237         0.843193        -0.238106
 H        -0.558428         2.006442        -0.776929
 H        -0.522177         1.648473         0.950073
 H         0.867025        -2.450237         0.571569
 H        -0.774830        -3.212102         0.493202
 H         0.048663        -2.613549        -0.942131
