19
Iteration:   877
 C        -2.971636        -1.663305         1.601041
 C        -1.830159        -0.638198         1.159186
 C        -1.990438         0.359934         0.025118
 C        -0.695551         1.133852        -0.101427
 C         0.309576         0.017363         0.028122
 O         1.515427        -0.040017         0.037446
 C        -0.638028        -1.166310         0.078514
 C        -0.018256        -2.526281         0.238410
 O        -1.770107        -0.652080        -0.989505
 H        -2.491552        -2.624473         1.908793
 H        -3.569225        -1.340966         2.463616
 H        -3.508050        -2.038069         0.738200
 H        -1.482066        -0.070410         2.057819
 H        -2.913522         1.045196         0.071446
 H        -0.588786         1.494469        -1.155756
 H        -0.597171         2.038940         0.597112
 H         0.023722        -2.778721         1.330449
 H        -0.567002        -3.371180        -0.242547
 H         1.007862        -2.521634        -0.166923
