19
Iteration:  2125
 C        -2.999343        -1.519002         1.479734
 C        -1.725436        -0.755677         1.310427
 C        -2.006675         0.337070         0.183278
 C        -0.753265         1.168027         0.023949
 C         0.359976         0.057685        -0.053868
 O         1.541654         0.065394        -0.114493
 C        -0.655374        -1.228964         0.135669
 C        -0.176936        -2.614130         0.004288
 O        -1.605690        -0.709849        -0.835574
 H        -3.867976        -0.790295         1.750593
 H        -3.161956        -1.980310         0.495353
 H        -3.092428        -2.262611         2.320419
 H        -1.374991        -0.377529         2.278834
 H        -3.039023         0.652511         0.057528
 H        -0.728971         1.594769        -0.997664
 H        -0.605939         2.002821         0.697293
 H         0.837421        -2.634148         0.564248
 H        -0.966011        -3.125425         0.702676
 H        -0.251608        -3.144390        -0.948264
