19
Iteration:  1527
 C        -2.813897        -1.552608         1.558699
 C        -1.695404        -0.607104         1.204631
 C        -1.982991         0.391175         0.036152
 C        -0.747741         1.200733        -0.076757
 C         0.192204         0.010122         0.075707
 O         1.394025        -0.092145         0.026605
 C        -0.706018        -1.132889         0.156413
 C        -0.084105        -2.564988         0.107836
 O        -1.653519        -0.797691        -0.957381
 H        -2.515163        -2.404276         2.162781
 H        -3.501103        -0.917710         2.135535
 H        -3.266577        -1.898681         0.616504
 H        -1.247228        -0.104254         2.133085
 H        -3.020211         0.832729        -0.081011
 H        -0.728658         1.781788        -0.976818
 H        -0.488535         1.706602         0.842239
 H         0.591016        -2.959179         0.936175
 H        -0.945784        -3.210848        -0.113935
 H         0.554113        -2.563791        -0.791938
