19
Iteration:  1761charge 0 multiplicity 1
 C        -2.785812        -1.484138         1.622719
 C        -1.671754        -0.625679         1.220383
 C        -2.005044         0.302247        -0.030722
 C        -0.787366         1.128847        -0.117392
 C         0.294210         0.057557        -0.002582
 O         1.528396         0.139239         0.098479
 C        -0.655590        -1.208927         0.267690
 C        -0.374124        -2.642175        -0.057029
 O        -1.631140        -0.838406        -0.866844
 H        -2.829140        -1.937084         2.625722
 H        -3.790134        -1.015228         1.552302
 H        -2.849495        -2.332275         0.889407
 H        -1.126969        -0.227624         2.164949
 H        -2.904473         0.741184        -0.260746
 H        -0.490155         1.715891        -0.976007
 H        -0.644025         1.833094         0.673733
 H        -0.020269        -3.296051         0.786091
 H        -1.257775        -3.052837        -0.606904
 H         0.614101        -2.610930        -0.661987
