19
Iteration:  2512charge 0 multiplicity 1
 C        -2.925284        -1.453572         1.562691
 C        -1.700558        -0.568263         1.186863
 C        -1.918709         0.313720        -0.015654
 C        -0.662346         1.165890        -0.099092
 C         0.262329         0.004773         0.046633
 O         1.498867         0.150213         0.225328
 C        -0.688226        -1.272180         0.046942
 C        -0.165113        -2.621403        -0.046504
 O        -1.757825        -0.910072        -0.866483
 H        -3.674982        -1.456044         0.739970
 H        -2.515177        -2.508698         1.770660
 H        -3.383625        -1.150718         2.531366
 H        -1.256613        -0.038565         2.123423
 H        -2.926182         0.826474        -0.261884
 H        -0.594371         1.790259        -0.932010
 H        -0.660724         1.877595         0.760552
 H         0.128885        -2.864013         1.007556
 H        -0.971676        -3.394422        -0.340804
 H         0.800655        -2.791701        -0.595814
