19
Iteration:  2820
 C        -3.000158        -1.438506         1.679983
 C        -1.713899        -0.679993         1.170133
 C        -2.009779         0.324419         0.031052
 C        -0.677501         1.170047        -0.144160
 C         0.291821        -0.006091         0.114023
 O         1.495733         0.110724         0.175156
 C        -0.729309        -1.188979         0.076659
 C        -0.163250        -2.627694         0.016972
 O        -1.580641        -0.844448        -1.029656
 H        -3.587671        -1.863347         0.849242
 H        -2.804944        -2.287859         2.340906
 H        -3.748608        -0.802205         2.225104
 H        -1.090787        -0.394451         2.045688
 H        -2.994299         0.741602        -0.162395
 H        -0.574538         1.623064        -1.086541
 H        -0.544789         1.941427         0.672601
 H         0.169885        -2.892167         1.026535
 H        -0.898698        -3.320232        -0.206988
 H         0.690756        -2.682680        -0.645965
