19
Iteration:  1521charge 0 multiplicity 1
 C        -2.799874        -1.501122         1.552436
 C        -1.715206        -0.596080         1.218330
 C        -2.019835         0.357261         0.052534
 C        -0.748486         1.152343        -0.109166
 C         0.236512        -0.005832         0.086789
 O         1.398646        -0.029664         0.026929
 C        -0.635702        -1.184996         0.155348
 C        -0.114498        -2.586010         0.094582
 O        -1.672110        -0.785255        -0.944883
 H        -2.493463        -2.490242         2.010894
 H        -3.562753        -0.905958         2.104327
 H        -3.348311        -1.739677         0.619141
 H        -1.117545        -0.296654         2.072079
 H        -2.957965         0.802044        -0.098937
 H        -0.677147         2.065648        -0.845431
 H        -0.693574         1.821097         0.824134
 H         0.414243        -3.007718         0.945558
 H        -1.001331        -3.243530        -0.091233
 H         0.604561        -2.634453        -0.740501
