19
Iteration:  1828charge 0 multiplicity 1
 C        -2.863144        -1.532983         1.577772
 C        -1.725568        -0.663798         1.248481
 C        -2.018084         0.401881         0.036024
 C        -0.695977         1.173965        -0.009287
 C         0.207883        -0.016414         0.044131
 O         1.394386        -0.132068        -0.010612
 C        -0.744598        -1.133511         0.049098
 C        -0.043681        -2.467109         0.161748
 O        -1.639020        -0.794143        -0.948157
 H        -2.502309        -2.559627         1.657880
 H        -3.477326        -1.376896         2.482237
 H        -3.480874        -1.632584         0.653212
 H        -1.293463        -0.026619         2.068630
 H        -2.858869         0.901437        -0.319227
 H        -0.578467         1.653760        -0.919736
 H        -0.605541         1.967278         0.741137
 H         0.891676        -2.263634         0.723971
 H        -0.668520        -3.257712         0.563145
 H         0.308493        -2.775245        -0.883941
