19
Iteration:  3393
 C        -2.865743        -1.542312         1.754374
 C        -1.824150        -0.631707         1.075716
 C        -2.055958         0.357485        -0.046791
 C        -0.656302         1.151371        -0.109654
 C         0.236918        -0.017437         0.057569
 O         1.479389        -0.021964         0.135372
 C        -0.722327        -1.210992         0.135971
 C        -0.137811        -2.551146         0.055216
 O        -1.579860        -0.741337        -0.986841
 H        -3.237505        -2.182146         0.937395
 H        -2.615184        -2.041219         2.668484
 H        -3.816294        -1.094689         1.880627
 H        -1.294686        -0.122206         1.953526
 H        -2.951092         0.902230        -0.252622
 H        -0.483258         1.916176        -0.963794
 H        -0.627591         1.879127         0.792177
 H         0.387638        -2.767430         0.964353
 H        -0.854117        -3.379787        -0.006614
 H         0.633063        -2.601948        -0.698217
