19
Iteration:  4716charge 0 multiplicity 1
 C        -3.039771        -1.613573         1.501888
 C        -1.709170        -0.638335         1.251769
 C        -1.982792         0.350006         0.059704
 C        -0.657883         1.213920        -0.046088
 C         0.302390         0.011252         0.024695
 O         1.491173        -0.021622         0.035315
 C        -0.706610        -1.187269         0.157280
 C        -0.162880        -2.551638         0.094343
 O        -1.596888        -0.771108        -0.949060
 H        -3.121863        -2.303870         0.740270
 H        -2.994445        -1.974876         2.443658
 H        -3.896373        -1.000853         1.501608
 H        -1.558297        -0.116272         2.136639
 H        -2.943101         0.750134        -0.141549
 H        -0.576141         2.017647        -0.839459
 H        -0.390962         1.983673         0.730223
 H         0.757916        -2.630457         0.765886
 H        -0.866009        -3.256907         0.458321
 H        -0.004641        -2.839755        -0.975845
