19
Iteration:  3306charge 0 multiplicity 1
 C        -2.950544        -1.525341         1.543605
 C        -1.707307        -0.690245         1.190782
 C        -1.907556         0.346984         0.022169
 C        -0.675325         1.178978        -0.258654
 C         0.280991        -0.020705         0.077123
 O         1.493237         0.116158         0.206707
 C        -0.680640        -1.194875         0.155474
 C        -0.217159        -2.615986         0.051794
 O        -1.721352        -0.778852        -0.859400
 H        -3.463030        -1.851389         0.631250
 H        -2.638412        -2.434567         2.054081
 H        -3.533714        -0.888838         2.202114
 H        -1.119749        -0.543979         2.074699
 H        -2.880578         0.771626        -0.059997
 H        -0.475955         1.327546        -1.405961
 H        -0.693616         2.212224         0.307298
 H         0.336059        -2.741704         0.920009
 H        -0.867563        -3.401539        -0.214149
 H         0.503761        -2.627238        -0.719714
