19
Iteration:  1096
 C        -2.893970        -1.502921         1.463170
 C        -1.784071        -0.521399         1.236636
 C        -1.951433         0.255141         0.013630
 C        -0.660808         1.150430         0.026490
 C         0.307113         0.040653         0.032366
 O         1.515808         0.174112         0.037230
 C        -0.600459        -1.232775         0.137142
 C        -0.236137        -2.666175         0.051992
 O        -1.725170        -0.874075        -0.865129
 H        -2.817226        -2.143973         2.319181
 H        -3.880067        -1.032914         1.490895
 H        -3.042705        -2.080234         0.534624
 H        -1.364212        -0.108486         2.153226
 H        -2.964480         0.887141        -0.150317
 H        -0.808920         1.681737        -0.853425
 H        -0.450184         1.751299         1.040337
 H         0.903061        -2.647307         0.318229
 H        -0.801166        -3.422777         0.590426
 H        -0.354732        -2.996810        -1.007021
