19
Iteration:  4000
 C        -2.971106        -1.460441         1.455266
 C        -1.700138        -0.582661         1.227116
 C        -1.984941         0.296346         0.035300
 C        -0.698299         1.163533        -0.036487
 C         0.223834         0.012427         0.049124
 O         1.435272        -0.017997         0.038675
 C        -0.725749        -1.228510         0.188442
 C        -0.067371        -2.598701         0.042209
 O        -1.624313        -0.815099        -0.874559
 H        -3.424810        -1.445802         0.437349
 H        -2.485158        -2.379786         1.747283
 H        -3.666740        -1.046023         2.204232
 H        -1.204048        -0.063288         2.230659
 H        -2.873712         1.021908         0.112518
 H        -0.742148         1.783837        -0.924724
 H        -0.636194         1.860914         0.854409
 H         0.867817        -2.548578         0.653546
 H        -0.768261        -3.407432         0.280780
 H         0.269409        -2.716622        -1.027710
