19
Iteration:  2877
 C        -2.945082        -1.674200         1.497693
 C        -1.810698        -0.599641         1.170341
 C        -1.952635         0.358176        -0.061065
 C        -0.600367         1.185691        -0.114879
 C         0.271840        -0.011308         0.047005
 O         1.462368        -0.063221         0.082617
 C        -0.735866        -1.158133         0.158390
 C        -0.147521        -2.475438         0.210445
 O        -1.641211        -0.710115        -0.870297
 H        -3.551160        -1.979244         0.618743
 H        -2.461569        -2.610341         1.896992
 H        -3.599546        -1.251212         2.335690
 H        -1.358403        -0.260602         2.143022
 H        -2.858614         0.951287        -0.448904
 H        -0.723861         1.547394        -1.186922
 H        -0.595641         1.941414         0.577796
 H         0.876677        -2.394546         0.631116
 H        -0.775825        -3.256357         0.678891
 H         0.181235        -2.853156        -0.811215
