19
Iteration:  4172charge 0 multiplicity 1
 C        -2.855878        -1.468631         1.600602
 C        -1.770137        -0.590800         1.208799
 C        -2.069729         0.395833        -0.029717
 C        -0.645072         1.176004        -0.086618
 C         0.299642         0.023049         0.074103
 O         1.468199        -0.113710         0.186164
 C        -0.740144        -1.180327         0.100963
 C        -0.044509        -2.539877        -0.015769
 O        -1.746769        -0.851801        -0.928241
 H        -3.457435        -1.753011         0.628882
 H        -2.300326        -2.448158         1.901670
 H        -3.449968        -1.089124         2.506962
 H        -1.296488         0.033089         2.112609
 H        -3.082085         0.805933        -0.301872
 H        -0.489561         1.781229        -1.029373
 H        -0.626755         1.897853         0.830153
 H         0.846636        -2.685285         0.626987
 H        -0.758906        -3.353977         0.224379
 H         0.205072        -2.568758        -1.126892
