19
Iteration:  3766charge 0 multiplicity 1
 C        -2.937740        -1.662656         1.554137
 C        -1.796923        -0.567960         1.217888
 C        -2.015230         0.378699         0.027766
 C        -0.668013         1.238248         0.044174
 C         0.260126         0.017209         0.050484
 O         1.491785        -0.102561        -0.041701
 C        -0.637888        -1.182015         0.120923
 C        -0.129504        -2.527884         0.181929
 O        -1.654233        -0.708884        -0.990379
 H        -3.022191        -2.507174         0.834980
 H        -2.883076        -2.080311         2.596864
 H        -3.984396        -1.223494         1.400316
 H        -1.233892        -0.247870         2.018019
 H        -2.958380         0.811176        -0.265182
 H        -0.704596         1.772705        -0.924485
 H        -0.524843         1.943904         0.823006
 H         0.869355        -2.682406         0.697321
 H        -0.843302        -3.273393         0.511196
 H         0.216078        -2.889787        -0.825551
