19
Iteration:  2344charge 0 multiplicity 1
 C        -2.790615        -1.618587         1.547249
 C        -1.739223        -0.531390         1.182477
 C        -2.030414         0.422184        -0.052173
 C        -0.731762         1.216188        -0.000956
 C         0.192644        -0.111603         0.056890
 O         1.460435        -0.126614         0.065396
 C        -0.749426        -1.118650         0.163733
 C        -0.091623        -2.466541         0.064670
 O        -1.655741        -0.821082        -0.928063
 H        -2.556757        -2.691040         1.208615
 H        -2.907407        -1.645542         2.660696
 H        -3.731850        -1.252648         1.043100
 H        -1.522402         0.091463         2.103299
 H        -2.906450         0.902966        -0.319804
 H        -0.393959         1.742770        -0.960501
 H        -0.697170         1.842823         0.869349
 H         0.538359        -2.534676         0.988857
 H        -0.855980        -3.241633         0.114046
 H         0.667620        -2.595657        -0.725140
