19
Iteration:  4998
 C        -2.927000        -1.516724         1.396224
 C        -1.818957        -0.591556         1.291903
 C        -2.012284         0.367553         0.043560
 C        -0.674189         1.235201        -0.101076
 C         0.270335        -0.006803         0.001886
 O         1.468157        -0.018671        -0.017265
 C        -0.697886        -1.171121         0.296595
 C        -0.167937        -2.605251         0.143220
 O        -1.543596        -0.794034        -0.880544
 H        -3.406610        -1.672744         0.345654
 H        -2.532712        -2.641796         1.637234
 H        -3.674734        -1.529414         2.276277
 H        -1.365929        -0.345739         2.331847
 H        -2.989687         0.828021        -0.121687
 H        -0.636657         1.793229        -1.070823
 H        -0.391307         1.844439         0.806327
 H         0.820760        -2.854939         0.593152
 H        -0.877012        -3.310651         0.409523
 H        -0.172163        -2.677442        -0.982969
