19
Iteration:  4062
 C        -2.831383        -1.617519         1.514420
 C        -1.716082        -0.581425         1.185216
 C        -2.043202         0.401136        -0.003210
 C        -0.682081         1.185373        -0.034618
 C         0.283195        -0.004121         0.051507
 O         1.441053        -0.018186        -0.018257
 C        -0.748283        -1.171886         0.214950
 C        -0.217828        -2.632298         0.135869
 O        -1.588516        -0.696950        -0.922565
 H        -3.123903        -2.329945         0.727835
 H        -2.512149        -2.458809         2.153045
 H        -3.744090        -1.067937         1.899761
 H        -1.327740        -0.026760         1.953666
 H        -3.049644         0.797617        -0.210524
 H        -0.513678         1.906531        -0.860036
 H        -0.467831         1.711995         0.904010
 H         0.326248        -2.885022         1.042796
 H        -1.089566        -3.324511        -0.012167
 H         0.558572        -2.865554        -0.593619
