19
Iteration:  2621charge 0 multiplicity 1
 C        -2.848630        -1.644259         1.436446
 C        -1.755221        -0.657896         1.158486
 C        -1.983733         0.356349         0.007102
 C        -0.664130         1.247806        -0.109406
 C         0.242621         0.099347         0.054293
 O         1.455640        -0.153362         0.080154
 C        -0.685819        -1.128659         0.163751
 C        -0.148526        -2.535802         0.242792
 O        -1.662463        -0.722928        -0.920614
 H        -3.186639        -2.269524         0.561171
 H        -2.652345        -2.423708         2.205157
 H        -3.763687        -1.137961         1.832625
 H        -1.348155        -0.249564         2.133885
 H        -2.941656         0.884257        -0.268624
 H        -0.726072         1.815863        -0.988600
 H        -0.747210         2.036511         0.682362
 H         0.851566        -2.432783         0.572901
 H        -0.851280        -3.223589         0.769906
 H         0.026634        -2.862151        -0.770364
