19
Iteration:   411charge 0 multiplicity 1
 C        -2.823314        -1.535562         1.586125
 C        -1.693654        -0.573884         1.178569
 C        -1.995828         0.265211        -0.052060
 C        -0.781121         1.199693        -0.256973
 C         0.312518         0.031177         0.031682
 O         1.498998         0.107793         0.308832
 C        -0.645524        -1.145576         0.151305
 C        -0.237001        -2.569429        -0.000971
 O        -1.687051        -0.931266        -0.871675
 H        -2.593881        -2.009164         2.547270
 H        -3.797449        -1.087285         1.813350
 H        -3.068310        -2.376312         0.941984
 H        -1.236789        -0.007995         2.016121
 H        -3.011534         0.809542        -0.184321
 H        -0.649677         1.619315        -1.194419
 H        -0.548249         1.996884         0.512770
 H         0.421059        -2.996589         0.760101
 H        -1.142278        -3.246740        -0.113943
 H         0.234453        -2.625077        -1.012269
