19
Iteration:  3561
 C        -2.959707        -1.480613         1.569311
 C        -1.699868        -0.597634         1.233716
 C        -1.903137         0.296215         0.001386
 C        -0.737222         1.186335        -0.100116
 C         0.229233         0.035458         0.024823
 O         1.471696         0.013627         0.169342
 C        -0.685378        -1.203849         0.183772
 C        -0.152054        -2.652780        -0.041969
 O        -1.639288        -0.810730        -0.906314
 H        -3.340769        -2.179656         0.843455
 H        -2.895935        -1.917020         2.546916
 H        -3.823037        -0.798656         1.741722
 H        -0.985284        -0.201288         2.024460
 H        -2.893903         0.738635        -0.184339
 H        -0.732538         1.655167        -1.165452
 H        -0.520408         2.134978         0.576571
 H         0.767512        -2.650171         0.491889
 H        -0.783727        -3.417770         0.295563
 H         0.017439        -2.651674        -1.099500
