19
Iteration:  1302charge 0 multiplicity 1
 C        -2.816881        -1.641083         1.645438
 C        -1.722000        -0.676283         1.166239
 C        -2.062000         0.334954         0.000303
 C        -0.763533         1.231066        -0.098308
 C         0.259945        -0.030058         0.030913
 O         1.488605        -0.094165         0.097717
 C        -0.692203        -1.172487         0.097250
 C        -0.152083        -2.518022         0.162519
 O        -1.627545        -0.635295        -1.018239
 H        -2.561032        -2.570139         2.191464
 H        -3.454310        -1.135460         2.396760
 H        -3.277433        -1.862204         0.652125
 H        -1.370747        -0.091800         2.054980
 H        -3.124915         0.749857         0.129433
 H        -0.649366         1.870724        -1.096740
 H        -0.562759         2.039669         0.652700
 H         0.483125        -2.754320         1.038639
 H        -0.955527        -3.252779         0.162852
 H         0.311578        -2.698792        -0.787342
