19
Iteration:  4313charge 0 multiplicity 1
 C        -2.918193        -1.471536         1.544937
 C        -1.728473        -0.636830         1.233043
 C        -2.011592         0.381779         0.028948
 C        -0.619846         1.226621        -0.053238
 C         0.208001        -0.055592         0.025951
 O         1.457391        -0.027573         0.060030
 C        -0.715376        -1.233524         0.176042
 C        -0.082222        -2.555430         0.061868
 O        -1.691406        -0.805266        -0.971662
 H        -3.422769        -1.768952         0.634086
 H        -2.596699        -2.486596         1.746192
 H        -3.626281        -1.103521         2.291344
 H        -1.277225        -0.219881         2.132576
 H        -3.016501         0.831266        -0.160972
 H        -0.570706         1.904082        -0.948881
 H        -0.414023         1.815734         0.923170
 H         0.274907        -2.765434         1.093935
 H        -0.720445        -3.423002         0.071915
 H         0.751672        -2.366084        -0.686858
