19
Iteration:  1474charge 0 multiplicity 1
 C        -2.976810        -1.584404         1.631669
 C        -1.681645        -0.755129         1.253638
 C        -1.910140         0.333266        -0.023837
 C        -0.727944         1.155858        -0.166514
 C         0.294343         0.033794         0.024682
 O         1.552808         0.250762         0.030469
 C        -0.687542        -1.209412         0.190966
 C        -0.328069        -2.696562         0.049486
 O        -1.610507        -0.713849        -0.902831
 H        -2.461631        -2.546139         1.904394
 H        -3.530845        -1.064439         2.460699
 H        -3.698773        -1.874670         0.807832
 H        -1.248157        -0.289123         2.192395
 H        -2.934319         0.623056         0.076663
 H        -0.524038         1.606160        -1.226286
 H        -0.434406         1.951840         0.571981
 H        -0.072475        -3.099200         1.124372
 H        -1.287120        -3.233570        -0.212634
 H         0.563667        -3.020323        -0.541562
