19
Iteration:  3960
 C        -2.939829        -1.602427         1.615213
 C        -1.794231        -0.663634         1.187158
 C        -1.944064         0.310377         0.088776
 C        -0.690024         1.200007        -0.170420
 C         0.341574         0.076861        -0.014345
 O         1.567914         0.100553         0.137554
 C        -0.686831        -1.193797         0.146270
 C        -0.307988        -2.638312         0.039366
 O        -1.606972        -0.740196        -0.943045
 H        -3.344921        -2.170219         0.759652
 H        -2.828324        -2.347936         2.434331
 H        -3.863251        -1.168318         1.992238
 H        -1.453992        -0.184267         2.031262
 H        -2.960261         0.640141        -0.028692
 H        -0.535984         1.791339        -1.145225
 H        -0.572383         1.789219         0.779744
 H         0.627873        -2.748594         0.665961
 H        -0.890636        -3.441275         0.441465
 H        -0.059418        -2.826166        -1.023192
