19
Iteration:  2290charge 0 multiplicity 1
 C        -2.869350        -1.583817         1.695463
 C        -1.654609        -0.684388         1.197437
 C        -1.933791         0.291279         0.041804
 C        -0.658650         1.164170        -0.196839
 C         0.287124         0.022504         0.026884
 O         1.499831         0.175751         0.242625
 C        -0.738131        -1.186349         0.061906
 C        -0.317991        -2.645550        -0.019376
 O        -1.699362        -0.731785        -0.960264
 H        -2.406080        -2.610800         1.531912
 H        -3.254325        -1.415573         2.724963
 H        -3.790347        -1.582061         1.034706
 H        -1.266540        -0.244744         2.099154
 H        -2.818978         0.825579        -0.148059
 H        -0.615675         1.582326        -1.263036
 H        -0.346042         1.982638         0.398380
 H         0.046547        -2.841343         1.037447
 H        -1.061365        -3.444482        -0.224930
 H         0.558235        -2.919405        -0.667733
