19
Iteration:  4589charge 0 multiplicity 1
 C        -2.965553        -1.547521         1.540260
 C        -1.691570        -0.505153         1.223247
 C        -1.974102         0.349894        -0.056777
 C        -0.754411         1.221520        -0.110425
 C         0.323742         0.031892         0.040579
 O         1.481036        -0.076168         0.161471
 C        -0.656903        -1.164097         0.189670
 C        -0.141301        -2.599374        -0.039815
 O        -1.670710        -0.827387        -0.837725
 H        -3.471427        -2.083891         0.682069
 H        -2.596789        -2.462407         2.112034
 H        -3.705169        -0.915048         2.118559
 H        -1.169492        -0.175259         2.127344
 H        -2.949950         0.853644        -0.273560
 H        -0.793342         1.664942        -1.038905
 H        -0.553206         1.914884         0.665224
 H         0.178734        -3.187419         0.817644
 H        -1.020214        -3.214887        -0.404253
 H         0.668340        -2.423485        -0.695548
