19
Iteration:  2587charge 0 multiplicity 1
 C        -2.789095        -1.637622         1.611205
 C        -1.813837        -0.540008         1.103003
 C        -1.960247         0.392077        -0.082215
 C        -0.679854         1.189426        -0.047939
 C         0.242668         0.007452         0.067859
 O         1.490381        -0.071450         0.157757
 C        -0.767187        -1.177690         0.083204
 C        -0.128883        -2.578966         0.132771
 O        -1.728591        -0.740161        -0.953769
 H        -2.709161        -2.369744         0.769748
 H        -2.476685        -1.964326         2.653216
 H        -3.770204        -1.143835         1.449134
 H        -1.361332        -0.208048         2.105613
 H        -2.825634         1.091560        -0.365485
 H        -0.527473         1.851727        -0.920628
 H        -0.812965         1.717182         0.958572
 H         0.613072        -2.575487         0.883204
 H        -0.593530        -3.572902         0.398371
 H         0.254793        -2.735733        -0.887122
