19
Iteration:   837
 C        -2.858499        -1.566493         1.348695
 C        -1.685818        -0.516220         1.243865
 C        -1.953624         0.303594         0.075591
 C        -0.702662         1.143359        -0.091387
 C         0.225666         0.017909         0.111690
 O         1.401509         0.085966        -0.062137
 C        -0.661192        -1.150293         0.242575
 C        -0.197993        -2.584228         0.179658
 O        -1.617883        -0.876702        -0.854503
 H        -2.478998        -2.530765         1.708709
 H        -3.636627        -1.136870         2.069895
 H        -3.378405        -1.594894         0.328435
 H        -1.120358        -0.183689         2.164696
 H        -2.954078         0.677470        -0.189120
 H        -0.671795         1.438672        -1.084980
 H        -0.639736         1.959351         0.677972
 H        -0.196881        -3.108426         1.162389
 H        -0.972801        -2.988116        -0.425576
 H         0.751456        -2.689795        -0.346239
