19
Iteration:  2816
 C        -3.009258        -1.460196         1.684850
 C        -1.730106        -0.666472         1.153879
 C        -1.964670         0.299836         0.050372
 C        -0.683295         1.138352        -0.134779
 C         0.288101         0.012801         0.097962
 O         1.525552         0.135079         0.183337
 C        -0.759266        -1.199195         0.057960
 C        -0.153801        -2.637829         0.065282
 O        -1.596543        -0.809075        -1.020927
 H        -3.607069        -1.893952         0.871561
 H        -2.784582        -2.235781         2.425132
 H        -3.750015        -0.797805         2.091369
 H        -1.013935        -0.442955         1.948396
 H        -2.952199         0.681270        -0.172602
 H        -0.574750         1.553746        -1.179019
 H        -0.550137         2.074041         0.552645
 H         0.123636        -3.051486         1.016109
 H        -0.945921        -3.330185        -0.390633
 H         0.572151        -2.656492        -0.740976
