19
Iteration:  1238
 C        -2.921639        -1.591326         1.554505
 C        -1.714114        -0.652229         1.213949
 C        -2.003093         0.279834         0.072010
 C        -0.743091         1.214277        -0.130024
 C         0.333109        -0.013714         0.033464
 O         1.517659         0.061694         0.040457
 C        -0.690083        -1.165472         0.147278
 C        -0.205860        -2.591558         0.029698
 O        -1.620991        -0.738220        -0.830174
 H        -2.744860        -2.199912         2.435611
 H        -3.776146        -0.914848         1.671863
 H        -3.302337        -2.215224         0.736906
 H        -1.231785        -0.187416         2.116207
 H        -3.098032         0.777164         0.042029
 H        -0.747913         1.542414        -1.180893
 H        -0.584988         2.074536         0.481954
 H        -0.184060        -3.052406         1.053209
 H        -0.905118        -3.113227        -0.647574
 H         0.801169        -2.681334        -0.396056
