19
Iteration:  3480
 C        -2.909627        -1.631010         1.431756
 C        -1.813247        -0.614859         1.199347
 C        -1.994767         0.336293         0.047265
 C        -0.660829         1.241249        -0.062440
 C         0.336152         0.022103         0.027076
 O         1.508531        -0.027710        -0.008107
 C        -0.691150        -1.176164         0.220604
 C        -0.187317        -2.571939         0.227894
 O        -1.632604        -0.743206        -0.927502
 H        -3.501655        -1.616343         0.493959
 H        -2.595002        -2.636372         1.719644
 H        -3.503195        -1.096003         2.144306
 H        -1.349609        -0.399509         2.237092
 H        -2.903911         0.870377        -0.168549
 H        -0.721819         1.474843        -1.151790
 H        -0.765565         1.986497         0.673511
 H         0.892443        -2.610048         0.485244
 H        -0.875519        -3.060404         0.977515
 H        -0.406845        -2.884765        -0.815046
