19
Iteration:   544charge 0 multiplicity 1
 C        -3.018324        -1.653289         1.393655
 C        -1.761263        -0.720986         1.184763
 C        -2.003123         0.353560         0.084752
 C        -0.775080         1.265035        -0.206161
 C         0.339187         0.124702         0.052007
 O         1.563253         0.076042        -0.070545
 C        -0.639678        -1.119129         0.276398
 C        -0.184531        -2.696103         0.235186
 O        -1.585712        -0.786151        -0.779666
 H        -2.868491        -2.124235         2.336886
 H        -3.841238        -0.935125         1.519677
 H        -3.255737        -2.299016         0.565771
 H        -1.368367        -0.357355         2.150483
 H        -2.889096         0.918502        -0.181517
 H        -0.776466         1.398668        -1.315715
 H        -0.646095         2.176008         0.305129
 H         0.283958        -3.053536         1.185997
 H        -1.095975        -3.288274         0.060261
 H         0.567982        -2.754319        -0.541746
