19
Iteration:  2507
 C        -2.915089        -1.459515         1.541707
 C        -1.715228        -0.568357         1.231342
 C        -1.945789         0.272892        -0.042275
 C        -0.677036         1.153261        -0.094722
 C         0.292408        -0.025621         0.026342
 O         1.502455         0.124136         0.228342
 C        -0.695924        -1.200350         0.072202
 C        -0.173018        -2.604755        -0.024207
 O        -1.776886        -0.877012        -0.893499
 H        -3.705703        -1.506609         0.799123
 H        -2.481677        -2.438058         1.700998
 H        -3.315878        -1.249565         2.537534
 H        -1.091793        -0.192422         2.058407
 H        -2.890692         0.683702        -0.226463
 H        -0.514234         1.873213        -0.995159
 H        -0.569705         1.842584         0.749211
 H         0.208812        -2.755385         0.987947
 H        -0.869114        -3.337251        -0.277811
 H         0.800337        -2.724076        -0.489512
