19
Iteration:  3068charge 0 multiplicity 1
 C        -2.797978        -1.566535         1.541648
 C        -1.701729        -0.616780         1.191613
 C        -1.999796         0.319214        -0.011968
 C        -0.723579         1.209989        -0.310398
 C         0.301939         0.020567         0.126974
 O         1.486061         0.086607         0.226859
 C        -0.645629        -1.194376         0.155803
 C        -0.311024        -2.661995         0.089442
 O        -1.662528        -0.747980        -0.911565
 H        -3.248853        -2.148496         0.724915
 H        -2.429791        -2.282199         2.318805
 H        -3.695505        -1.076109         1.957352
 H        -1.349113        -0.095252         2.132910
 H        -3.003366         0.641521        -0.122354
 H        -0.623522         1.496449        -1.320949
 H        -0.403935         1.843490         0.394868
 H        -0.109432        -2.925996         1.193644
 H        -1.153293        -3.218887        -0.449851
 H         0.605543        -2.806031        -0.541349
