19
Iteration:  3708charge 0 multiplicity 1
 C        -3.046138        -1.486775         1.479035
 C        -1.738429        -0.651928         1.224065
 C        -1.974776         0.248038         0.081350
 C        -0.747973         1.186563        -0.144059
 C         0.316141         0.022759         0.097446
 O         1.538530         0.026242        -0.008691
 C        -0.649241        -1.216442         0.217520
 C        -0.149739        -2.604539         0.051075
 O        -1.598048        -0.720660        -0.844643
 H        -3.440551        -2.053057         0.586886
 H        -2.822415        -2.293430         2.222711
 H        -3.835795        -0.891316         1.947474
 H        -1.291620        -0.417713         2.152019
 H        -2.993893         0.601380        -0.104145
 H        -0.850184         1.617654        -1.118601
 H        -0.489684         1.998329         0.537841
 H         0.567433        -2.565163         0.826219
 H        -1.007035        -3.245804         0.223767
 H         0.234997        -2.650004        -0.970560
