19
Iteration:  4925charge 0 multiplicity 1
 C        -2.999923        -1.504829         1.474108
 C        -1.726018        -0.657521         1.188431
 C        -1.990036         0.372803         0.031005
 C        -0.692495         1.203181         0.057231
 C         0.273019         0.001458         0.130803
 O         1.437990        -0.054625        -0.087284
 C        -0.690469        -1.226436         0.201809
 C        -0.083838        -2.568336         0.146360
 O        -1.599375        -0.735635        -0.968597
 H        -3.236077        -2.030011         0.521874
 H        -2.908700        -2.214825         2.260139
 H        -3.902321        -0.974161         1.807518
 H        -1.349088        -0.164365         2.083133
 H        -2.990702         0.721745        -0.309264
 H        -0.523613         1.702363        -0.996746
 H        -0.497258         1.852194         0.953851
 H         0.871784        -2.589415         0.767607
 H        -0.706551        -3.429341         0.686767
 H        -0.027230        -2.713377        -0.917202
