19
Iteration:  3612
 C        -2.815960        -1.575240         1.619379
 C        -1.742978        -0.651208         1.215869
 C        -1.957442         0.391128         0.018743
 C        -0.704537         1.203441        -0.250756
 C         0.279815         0.024895         0.034810
 O         1.463947        -0.000250         0.248052
 C        -0.724311        -1.184920         0.115115
 C        -0.196737        -2.618201         0.030728
 O        -1.697682        -0.756110        -0.939593
 H        -3.115926        -2.278439         0.797710
 H        -2.536956        -2.277605         2.445770
 H        -3.731676        -1.129743         2.050180
 H        -1.231510        -0.085220         2.010303
 H        -2.930319         0.807592        -0.090696
 H        -0.589083         1.768102        -1.195680
 H        -0.241914         1.918733         0.357400
 H         0.215564        -2.834839         1.081013
 H        -1.079044        -3.225594        -0.239265
 H         0.552207        -2.677764        -0.829461
