19
Iteration:   293charge 0 multiplicity 1
 C        -2.963559        -1.573190         1.392623
 C        -1.703009        -0.704429         1.286516
 C        -1.908539         0.312286         0.151351
 C        -0.785623         1.092302        -0.263441
 C         0.373264         0.067296        -0.015494
 O         1.565924         0.234366         0.166558
 C        -0.706516        -1.221071         0.154234
 C        -0.252142        -2.588340         0.123706
 O        -1.670191        -0.805145        -0.854863
 H        -2.845869        -2.479883         2.031401
 H        -3.877383        -1.036837         1.780395
 H        -3.248271        -1.989996         0.396475
 H        -1.253732        -0.291860         2.232320
 H        -2.910277         0.529477        -0.011158
 H        -1.025994         1.490014        -1.363087
 H        -0.467733         2.091177         0.071697
 H         0.514426        -2.402411         0.874009
 H        -0.918294        -3.405950         0.501062
 H         0.290017        -3.021001        -0.720682
