19
Iteration:  1748
 C        -2.892276        -1.599483         1.614496
 C        -1.654634        -0.567683         1.268597
 C        -2.007570         0.312931        -0.024927
 C        -0.756972         1.235221        -0.165145
 C         0.338323         0.062693         0.036345
 O         1.511156         0.120271         0.112233
 C        -0.571651        -1.156270         0.128256
 C        -0.305577        -2.729875        -0.073419
 O        -1.627327        -0.821587        -0.786295
 H        -2.673264        -1.932554         2.677770
 H        -3.758001        -0.908319         1.583965
 H        -3.064025        -2.462911         0.936853
 H        -1.202143        -0.021562         2.179076
 H        -3.013916         0.664619        -0.227920
 H        -0.881010         1.615285        -1.227337
 H        -0.742706         1.974793         0.596076
 H        -0.421475        -3.233379         0.945547
 H        -1.339143        -3.013180        -0.520179
 H         0.400341        -3.185697        -0.837786
