19
Iteration:   948
 C        -2.912671        -1.532094         1.569611
 C        -1.710196        -0.653315         1.233271
 C        -1.915743         0.283233        -0.034749
 C        -0.711015         1.156370        -0.098066
 C         0.303737         0.038297         0.083897
 O         1.521621         0.194143         0.152990
 C        -0.702016        -1.197577         0.194374
 C        -0.315598        -2.610054        -0.081269
 O        -1.638505        -0.851410        -0.901345
 H        -2.665105        -2.115599         2.488649
 H        -3.796426        -0.938256         1.883567
 H        -3.132461        -2.345177         0.840993
 H        -1.184616        -0.204077         2.125342
 H        -2.837371         0.711914        -0.307916
 H        -0.513200         1.615545        -1.108305
 H        -0.744759         1.937267         0.608566
 H         0.581915        -2.670207         0.518812
 H        -0.941801        -3.404272         0.360816
 H        -0.101942        -2.923248        -1.112626
