19
Iteration:  4753
 C        -2.930262        -1.431441         1.508624
 C        -1.694577        -0.654073         1.203817
 C        -1.942397         0.338094         0.017591
 C        -0.680437         1.226234        -0.090080
 C         0.264736         0.015195         0.074304
 O         1.466457         0.056866         0.167229
 C        -0.714607        -1.237496         0.077343
 C        -0.113524        -2.671484         0.040306
 O        -1.715276        -0.808219        -0.910763
 H        -3.294524        -1.979837         0.551974
 H        -2.751635        -2.351241         2.203863
 H        -3.806577        -0.829513         1.896433
 H        -1.211473        -0.017883         2.064117
 H        -2.968701         0.807685         0.208525
 H        -0.368123         1.550818        -1.094455
 H        -0.719359         1.849183         0.821257
 H         0.779866        -2.759001         0.636436
 H        -0.912168        -3.489555         0.308560
 H         0.194775        -2.816948        -0.956347
