19
Iteration:  4970
 C        -2.955070        -1.619668         1.426836
 C        -1.819904        -0.648789         1.174208
 C        -2.015653         0.336389        -0.035961
 C        -0.609693         1.232329         0.018939
 C         0.325685         0.033136         0.178084
 O         1.519117        -0.029653        -0.146356
 C        -0.710286        -1.140254         0.184289
 C        -0.156719        -2.550952         0.251849
 O        -1.650998        -0.733535        -0.949918
 H        -3.629747        -1.675823         0.589431
 H        -2.479188        -2.528883         1.599564
 H        -3.454560        -1.330687         2.312536
 H        -1.459697        -0.425049         2.147008
 H        -2.954199         0.927015        -0.030289
 H        -0.384252         1.776648        -0.917241
 H        -0.681079         1.651554         1.030237
 H         0.753338        -2.674579         0.851944
 H        -0.890976        -3.178866         0.976690
 H        -0.177873        -3.070866        -0.685634
