19
Iteration:  1193
 C        -2.885919        -1.503327         1.565426
 C        -1.743999        -0.643096         1.199580
 C        -2.028854         0.331405        -0.006078
 C        -0.762873         1.147810         0.021171
 C         0.309078         0.043750         0.049351
 O         1.570926         0.159153        -0.029982
 C        -0.662456        -1.205060         0.156924
 C        -0.254190        -2.686212         0.071880
 O        -1.632652        -0.826186        -0.897518
 H        -2.558576        -2.480555         1.886059
 H        -3.543091        -1.012446         2.275029
 H        -3.606762        -1.660869         0.742932
 H        -1.408938        -0.052794         2.100918
 H        -2.989285         0.847913        -0.494469
 H        -0.647492         1.739206        -0.909276
 H        -0.473779         1.600659         0.928858
 H        -0.146654        -3.087767         1.124403
 H        -0.843262        -3.324211        -0.548263
 H         0.789550        -2.755091        -0.242827
