19
Iteration:  2219
 C        -2.842974        -1.575391         1.699880
 C        -1.765847        -0.667855         1.120744
 C        -1.946898         0.368030        -0.001175
 C        -0.712842         1.149649        -0.110370
 C         0.258215        -0.075271         0.077193
 O         1.441293        -0.069819         0.158101
 C        -0.764748        -1.196118         0.084033
 C        -0.051530        -2.522370        -0.034080
 O        -1.750002        -0.632721        -0.937050
 H        -2.605808        -1.603273         2.724897
 H        -3.768193        -1.041509         1.488255
 H        -2.954076        -2.557562         1.307637
 H        -1.124354        -0.368676         1.996281
 H        -2.921701         0.898762        -0.029570
 H        -0.496445         1.607737        -1.036612
 H        -0.603304         1.960698         0.682532
 H         0.743825        -2.273525         0.604121
 H        -0.558402        -3.352035         0.384260
 H         0.366552        -2.838200        -0.970741
