19
Iteration:  4531
 C        -2.830119        -1.606104         1.691974
 C        -1.708373        -0.660467         1.136873
 C        -2.051376         0.344370        -0.010726
 C        -0.683405         1.213227        -0.126001
 C         0.334265         0.082290         0.021660
 O         1.479087        -0.035185         0.268677
 C        -0.768444        -1.181824         0.026110
 C        -0.235516        -2.653677         0.089105
 O        -1.634954        -0.658264        -1.054839
 H        -3.215047        -2.328736         0.912290
 H        -2.534661        -2.059789         2.657418
 H        -3.815843        -1.190724         2.108768
 H        -1.059000        -0.345034         2.015833
 H        -3.001817         0.821782        -0.142917
 H        -0.735971         1.851079        -1.049126
 H        -0.348789         1.884025         0.637230
 H         0.655868        -2.551042         0.744571
 H        -0.975517        -3.322593         0.328746
 H         0.069119        -3.151757        -0.861087
