19
Iteration:  1151
 C        -2.823728        -1.644822         1.533431
 C        -1.811632        -0.614956         1.220825
 C        -2.057713         0.422215         0.037340
 C        -0.703282         1.196720        -0.070616
 C         0.215206         0.005645         0.066218
 O         1.422669        -0.163011        -0.012833
 C        -0.751527        -1.185547         0.147828
 C        -0.052483        -2.501366         0.182419
 O        -1.575028        -0.651336        -0.977279
 H        -2.402351        -2.512690         1.996847
 H        -3.509209        -1.138924         2.221120
 H        -3.401576        -1.968357         0.664446
 H        -1.211272        -0.379951         2.101267
 H        -3.100020         0.942341        -0.158872
 H        -0.672321         1.559453        -1.025408
 H        -0.729531         1.962826         0.706144
 H         0.526537        -2.706913         1.133544
 H        -0.785033        -3.321456         0.079469
 H         0.770163        -2.579207        -0.566678
