19
Iteration:  4835
 C        -2.777073        -1.498142         1.612145
 C        -1.674680        -0.634345         1.176586
 C        -1.954220         0.285992        -0.050618
 C        -0.709360         1.141037        -0.125138
 C         0.314857         0.006064        -0.019601
 O         1.454312         0.005515         0.340527
 C        -0.732515        -1.165789         0.020375
 C        -0.269490        -2.596321         0.094959
 O        -1.739229        -0.735139        -1.051578
 H        -3.377980        -1.937087         0.805255
 H        -2.200458        -2.357547         2.135133
 H        -3.404265        -1.150990         2.482558
 H        -1.195944        -0.096240         2.074418
 H        -2.837247         0.865021        -0.097983
 H        -0.792160         1.930676        -0.890273
 H        -0.463093         1.839612         0.691282
 H         0.175687        -2.762061         1.167399
 H        -1.073237        -3.289278        -0.112020
 H         0.581443        -2.868781        -0.662965
