19
Iteration:  3336
 C        -2.760975        -1.569543         1.537828
 C        -1.701963        -0.530549         1.206283
 C        -2.005026         0.318833        -0.011018
 C        -0.710719         1.223630        -0.178970
 C         0.289619        -0.053611        -0.064281
 O         1.490036         0.073323         0.287391
 C        -0.624689        -1.140323         0.131720
 C        -0.316510        -2.647139         0.109742
 O        -1.718006        -0.810575        -0.933959
 H        -3.373052        -1.699493         0.645656
 H        -2.384008        -2.594307         1.749703
 H        -3.410697        -1.320671         2.343599
 H        -1.066456        -0.080315         1.999556
 H        -3.056670         0.761302        -0.138397
 H        -0.617767         1.553360        -1.195999
 H        -0.691395         1.913097         0.641389
 H        -0.029049        -3.017084         1.099111
 H        -1.155539        -3.306520        -0.369622
 H         0.624490        -2.663336        -0.475024
