19
Iteration:  2182
 C        -2.784058        -1.629490         1.561881
 C        -1.736245        -0.630539         1.173860
 C        -1.971542         0.346579         0.014410
 C        -0.739890         1.223772        -0.015089
 C         0.301391        -0.011654        -0.012894
 O         1.479927        -0.111051         0.020138
 C        -0.729879        -1.171393         0.151672
 C        -0.187592        -2.498391         0.105884
 O        -1.672066        -0.681162        -0.911827
 H        -3.066595        -1.523415         2.635413
 H        -3.780855        -1.449368         1.160584
 H        -2.604697        -2.694543         1.335105
 H        -1.404309        -0.056925         2.088239
 H        -3.042515         0.818336        -0.144224
 H        -0.698471         1.974207        -0.879637
 H        -0.724033         1.605492         0.975699
 H         0.931744        -2.552488         0.298509
 H        -0.828021        -3.203078         0.721967
 H        -0.301975        -2.828482        -0.960971
