19
Iteration:  3801charge 0 multiplicity 1
 C        -2.889249        -1.650136         1.595905
 C        -1.750278        -0.591538         1.176689
 C        -2.016895         0.359750        -0.009948
 C        -0.697756         1.167053         0.007702
 C         0.271189        -0.036651         0.104120
 O         1.496900         0.018253         0.008500
 C        -0.700529        -1.095975         0.160533
 C        -0.206946        -2.641162         0.129933
 O        -1.604736        -0.699449        -1.018238
 H        -3.131151        -2.134679         0.691241
 H        -2.526625        -2.380213         2.334052
 H        -3.697575        -1.077500         2.118366
 H        -1.312093        -0.113040         1.985623
 H        -2.928915         0.894000        -0.350595
 H        -0.664478         1.594467        -1.007406
 H        -0.538628         1.966233         0.751504
 H         0.603241        -2.826887         0.879613
 H        -1.027198        -3.376853         0.394307
 H         0.065309        -2.817337        -0.899157
