19
Iteration:  1522charge 0 multiplicity 1
 C        -2.800729        -1.511313         1.554706
 C        -1.714056        -0.596763         1.218680
 C        -2.011961         0.366487         0.050763
 C        -0.748513         1.157799        -0.108271
 C         0.233764        -0.003922         0.089030
 O         1.389760        -0.042287         0.026542
 C        -0.644891        -1.172498         0.153628
 C        -0.107179        -2.585573         0.100730
 O        -1.668757        -0.788415        -0.949204
 H        -2.499439        -2.471826         2.026058
 H        -3.536493        -0.899987         2.091303
 H        -3.326522        -1.761386         0.628007
 H        -1.146074        -0.277773         2.061903
 H        -2.984161         0.814824        -0.092495
 H        -0.695976         2.024991        -0.852590
 H        -0.651369         1.801214         0.839021
 H         0.435811        -2.999675         0.903415
 H        -0.978238        -3.215377        -0.090219
 H         0.594978        -2.616174        -0.739893
