19
Iteration:  4704charge 0 multiplicity 1
 C        -2.985753        -1.667677         1.542469
 C        -1.874170        -0.647406         1.220989
 C        -1.984388         0.431769         0.007360
 C        -0.639173         1.293176        -0.053960
 C         0.295784         0.005008         0.080274
 O         1.488762        -0.050068        -0.026909
 C        -0.709805        -1.148310         0.231608
 C        -0.169553        -2.602581         0.107752
 O        -1.554365        -0.725987        -0.926759
 H        -3.132657        -2.417878         0.855050
 H        -2.896910        -2.198566         2.416750
 H        -3.872493        -1.102015         1.519562
 H        -1.333511        -0.352948         2.052195
 H        -2.888048         0.840085        -0.346532
 H        -0.562276         1.596488        -1.122210
 H        -0.383907         1.847481         0.859069
 H         0.836205        -2.677380         0.655450
 H        -0.887750        -3.291212         0.419994
 H         0.205563        -2.829001        -0.962875
