19
Iteration:  2908charge 0 multiplicity 1
 C        -2.882922        -1.616212         1.346250
 C        -1.719184        -0.601122         1.220026
 C        -1.936735         0.354686         0.049560
 C        -0.725652         1.208574        -0.108125
 C         0.286055         0.002014         0.046167
 O         1.531915         0.033965         0.057518
 C        -0.686161        -1.217348         0.157842
 C        -0.247836        -2.640345         0.255050
 O        -1.648418        -0.727730        -0.877428
 H        -3.120323        -2.066102         0.386831
 H        -2.724794        -2.296616         2.166053
 H        -3.755325        -0.965579         1.587773
 H        -1.338659        -0.186564         2.149318
 H        -2.902975         0.891124        -0.146597
 H        -0.941404         1.585776        -1.117096
 H        -0.860730         2.161940         0.439817
 H         0.760167        -2.575622         0.598616
 H        -0.772330        -3.263854         0.876109
 H        -0.293938        -3.105437        -0.695136
