19
Iteration:   243
 C        -2.872169        -1.605378         1.581633
 C        -1.912929        -0.593873         1.119161
 C        -2.016227         0.322744        -0.092377
 C        -0.742754         1.166320         0.088387
 C         0.287210         0.030578         0.061412
 O         1.503370        -0.049654        -0.053173
 C        -0.816294        -1.149535         0.210217
 C        -0.075615        -2.479401         0.213112
 O        -1.501842        -0.797836        -0.998401
 H        -2.509672        -2.076386         2.478604
 H        -3.831669        -1.171725         1.843609
 H        -3.117105        -2.406995         0.905765
 H        -1.526022        -0.034226         1.949013
 H        -3.078331         0.606568        -0.400903
 H        -0.667291         1.800700        -0.763836
 H        -0.742820         1.947451         0.876380
 H         0.731211        -2.550301         1.004800
 H        -0.622059        -3.446792         0.263342
 H         0.356164        -2.446729        -0.793091
