19
Iteration:  2230
 C        -2.875564        -1.505579         1.674390
 C        -1.657856        -0.675157         1.200345
 C        -2.038165         0.391627         0.024421
 C        -0.695562         1.125199        -0.102570
 C         0.249145        -0.000244         0.013561
 O         1.498785        -0.032268         0.218067
 C        -0.716865        -1.230947         0.116942
 C        -0.096236        -2.553693        -0.047180
 O        -1.760473        -0.733457        -0.994469
 H        -2.709860        -1.804570         2.685690
 H        -3.859918        -1.043228         1.723313
 H        -2.929414        -2.422664         1.133118
 H        -1.198613        -0.118822         2.060920
 H        -2.956531         0.993384        -0.179759
 H        -0.761830         1.592445        -1.043504
 H        -0.468355         1.875702         0.724271
 H         0.794790        -2.636935         0.524127
 H        -0.735556        -3.385558         0.043101
 H         0.210369        -2.454836        -1.081174
