19
Iteration:  4321charge 0 multiplicity 1
 C        -2.907584        -1.471124         1.487702
 C        -1.727946        -0.597409         1.209406
 C        -1.942995         0.318522         0.013903
 C        -0.707560         1.223428        -0.022696
 C         0.281668        -0.001046         0.078330
 O         1.479126        -0.001290         0.030621
 C        -0.732757        -1.246787         0.176127
 C        -0.108783        -2.609866         0.111814
 O        -1.768349        -0.800862        -0.961686
 H        -3.450248        -1.637446         0.499829
 H        -2.389892        -2.428571         1.879613
 H        -3.592573        -1.070923         2.373509
 H        -1.220412        -0.065472         2.025961
 H        -2.915784         0.832976        -0.064020
 H        -0.266415         1.843541        -0.884791
 H        -0.556730         1.696179         0.958307
 H         0.404274        -2.750437         1.081951
 H        -0.796834        -3.443365        -0.329369
 H         0.783772        -2.572097        -0.577341
