19
Iteration:  2452charge 0 multiplicity 1
 C        -2.834745        -1.740126         1.575595
 C        -1.834007        -0.637018         1.185529
 C        -2.004880         0.398832        -0.088413
 C        -0.636726         1.222553        -0.091703
 C         0.237855        -0.025154         0.089027
 O         1.480067        -0.071138         0.006862
 C        -0.751611        -1.118633         0.259493
 C        -0.163601        -2.514392         0.222031
 O        -1.621687        -0.690027        -1.000877
 H        -3.443126        -1.942725         0.671285
 H        -2.396172        -2.686231         1.872063
 H        -3.543195        -1.399517         2.343432
 H        -1.324092         0.011976         1.935279
 H        -2.861653         0.917432        -0.387055
 H        -0.646591         1.802441        -1.087883
 H        -0.537153         1.888158         0.774095
 H         0.597594        -2.512681         1.014596
 H        -0.799876        -3.337126         0.413634
 H         0.299643        -2.634543        -0.742092
