19
Iteration:  3908charge 0 multiplicity 1
 C        -2.723302        -1.560273         1.667497
 C        -1.751430        -0.529070         1.137807
 C        -2.042783         0.375842        -0.078310
 C        -0.761568         1.229085        -0.031904
 C         0.318532        -0.049333        -0.016160
 O         1.465754        -0.113733         0.252167
 C        -0.714307        -1.127536         0.055044
 C        -0.193315        -2.549421         0.005054
 O        -1.685738        -0.803513        -0.942606
 H        -3.074961        -2.165951         0.778586
 H        -2.423732        -2.245640         2.508726
 H        -3.764260        -1.181350         1.967057
 H        -1.103322        -0.087165         2.087793
 H        -3.002223         0.812361        -0.347060
 H        -0.587279         1.820999        -0.939659
 H        -0.788986         1.851837         0.824869
 H         0.495264        -2.685231         0.868068
 H        -1.076029        -3.223733        -0.023277
 H         0.490359        -2.733151        -0.820770
