19
Iteration:  3725charge 0 multiplicity 1
 C        -3.010633        -1.535900         1.458294
 C        -1.753950        -0.686076         1.294606
 C        -1.930596         0.379348         0.080886
 C        -0.689213         1.223728        -0.065145
 C         0.279649         0.059699         0.004667
 O         1.472875         0.004375        -0.016063
 C        -0.689988        -1.151055         0.215971
 C        -0.094907        -2.584280         0.052364
 O        -1.641794        -0.875470        -0.857683
 H        -3.119954        -2.071803         0.544236
 H        -3.108119        -2.116587         2.356935
 H        -3.818830        -0.786251         1.439641
 H        -1.501849        -0.150301         2.311637
 H        -2.885413         0.926648        -0.089059
 H        -0.466627         1.657335        -1.099845
 H        -0.542385         1.967973         0.776082
 H         0.788638        -2.907640         0.718994
 H        -0.907292        -3.330548         0.282395
 H         0.171848        -2.759487        -1.032967
