19
Iteration:  4513
 C        -2.802932        -1.555327         1.578717
 C        -1.679394        -0.619278         1.157344
 C        -1.969957         0.312330        -0.011785
 C        -0.707029         1.184109        -0.078303
 C         0.317147        -0.018570         0.092735
 O         1.465706         0.030252         0.237404
 C        -0.694419        -1.168181         0.067679
 C        -0.281402        -2.568022         0.009430
 O        -1.677837        -0.766788        -0.981791
 H        -3.283874        -2.155595         0.781165
 H        -2.420995        -2.265471         2.344276
 H        -3.567109        -0.905236         2.060504
 H        -1.299680        -0.113435         2.003201
 H        -2.896789         0.867701        -0.240646
 H        -0.653483         1.443670        -1.092004
 H        -0.754933         1.925960         0.814900
 H         0.677826        -2.745043         0.546140
 H        -1.114064        -3.074727         0.615119
 H        -0.244770        -3.035169        -0.987030
