19
Iteration:  1022
 C        -2.755279        -1.543559         1.550631
 C        -1.809286        -0.548589         1.135711
 C        -1.948114         0.374532        -0.085177
 C        -0.685738         1.217180        -0.067684
 C         0.216548         0.003685         0.040262
 O         1.435718        -0.078929         0.209891
 C        -0.802216        -1.221620         0.109724
 C        -0.027258        -2.548901         0.085052
 O        -1.748048        -0.808660        -0.939651
 H        -2.179790        -2.382692         1.957305
 H        -3.326026        -1.216173         2.452419
 H        -3.488368        -1.931798         0.809084
 H        -1.490501         0.028210         2.024562
 H        -2.835284         0.919110        -0.381691
 H        -0.515991         1.880355        -0.868457
 H        -0.626288         1.788437         0.954059
 H         1.054798        -2.327847         0.146451
 H        -0.257883        -3.280546         0.861589
 H        -0.381210        -3.110793        -0.778247
