19
Iteration:  4863charge 0 multiplicity 1
 C        -2.898623        -1.508574         1.542266
 C        -1.639403        -0.678715         1.173930
 C        -1.946975         0.333647         0.010379
 C        -0.711706         1.182824        -0.184284
 C         0.249168         0.033644         0.159812
 O         1.478835         0.010695         0.195024
 C        -0.713109        -1.188337         0.098283
 C        -0.225404        -2.632719         0.024060
 O        -1.679916        -0.734156        -0.911669
 H        -3.115846        -2.283329         0.806776
 H        -2.475397        -2.060858         2.371197
 H        -3.782586        -0.917775         1.806372
 H        -1.246206        -0.311344         2.119562
 H        -2.942692         0.858782        -0.014760
 H        -0.714816         1.645355        -1.173406
 H        -0.421843         2.079988         0.381039
 H         0.340160        -2.827764         0.884009
 H        -1.101166        -3.280269        -0.193856
 H         0.538231        -2.866300        -0.684473
