19
Iteration:  3577
 C        -2.894295        -1.402970         1.559211
 C        -1.656934        -0.673011         1.227287
 C        -2.021349         0.342823         0.036644
 C        -0.685584         1.202897        -0.200295
 C         0.252870         0.009746         0.121370
 O         1.507788         0.058459         0.191801
 C        -0.687397        -1.244023         0.106971
 C        -0.144724        -2.596155        -0.064659
 O        -1.713039        -0.867504        -0.859212
 H        -2.988810        -2.157353         0.712865
 H        -2.722644        -1.912498         2.558410
 H        -3.819936        -0.814214         1.479662
 H        -1.544056        -0.148159         2.127470
 H        -3.059756         0.748732        -0.020977
 H        -0.454898         1.607723        -1.130200
 H        -0.584715         1.809121         0.635568
 H         0.656403        -2.971620         0.659498
 H        -1.116374        -3.229648         0.090411
 H         0.199203        -2.699349        -1.139945
