19
Iteration:  3643charge 0 multiplicity 1
 C        -2.728462        -1.586207         1.646975
 C        -1.762072        -0.561391         1.155298
 C        -1.966110         0.313116        -0.042762
 C        -0.760933         1.199420        -0.132559
 C         0.288461         0.019641         0.124055
 O         1.479506        -0.083471         0.185598
 C        -0.748677        -1.140623         0.084177
 C        -0.254035        -2.515783         0.122054
 O        -1.688691        -0.748610        -1.056592
 H        -3.396048        -1.926784         0.761060
 H        -2.148912        -2.551395         1.870824
 H        -3.341336        -1.280191         2.527122
 H        -1.191420        -0.071428         1.891717
 H        -2.971846         0.743091        -0.128160
 H        -0.543830         1.733015        -1.032597
 H        -0.452420         1.847981         0.704106
 H         0.168363        -2.797213         1.167038
 H        -1.034127        -3.314596        -0.110151
 H         0.663505        -2.843056        -0.480828
