19
Iteration:  3313charge 0 multiplicity 1
 C        -2.895480        -1.510216         1.488272
 C        -1.697536        -0.679256         1.220959
 C        -1.919456         0.346854         0.032371
 C        -0.668791         1.171015        -0.284897
 C         0.313767         0.020244         0.110935
 O         1.478698         0.122526         0.214269
 C        -0.723404        -1.206366         0.119282
 C        -0.218175        -2.648828         0.043285
 O        -1.733373        -0.779664        -0.857215
 H        -3.538481        -1.883765         0.703851
 H        -2.537631        -2.431553         2.003556
 H        -3.441541        -1.058402         2.320205
 H        -1.132229        -0.345057         2.170257
 H        -2.878146         0.935245        -0.243273
 H        -0.692117         1.332868        -1.330820
 H        -0.605281         1.987756         0.377787
 H         0.233250        -2.848719         1.075448
 H        -1.057496        -3.442565        -0.158855
 H         0.660937        -2.686280        -0.662581
