19
Iteration:  3423charge 0 multiplicity 1
 C        -2.952851        -1.425783         1.539132
 C        -1.733213        -0.621661         1.171655
 C        -1.974823         0.263174         0.002479
 C        -0.744646         1.178106        -0.054982
 C         0.308025         0.056984         0.097001
 O         1.474119        -0.038693         0.042795
 C        -0.667395        -1.238659         0.180146
 C        -0.105549        -2.544351         0.021446
 O        -1.643437        -0.816549        -0.863740
 H        -3.050382        -2.161515         0.720854
 H        -2.987790        -1.981495         2.497180
 H        -3.845319        -0.772369         1.508864
 H        -1.334220        -0.206608         2.109937
 H        -2.903413         0.862811        -0.207048
 H        -0.686275         1.793071        -0.885671
 H        -0.929754         1.877765         0.679833
 H         0.784001        -2.598607         0.687532
 H        -0.852059        -3.403090         0.295737
 H         0.192958        -2.783584        -1.027231
