19
Iteration:  2323
 C        -2.750309        -1.594695         1.604736
 C        -1.724665        -0.600956         1.154249
 C        -1.987993         0.289342        -0.010832
 C        -0.739051         1.252952        -0.080181
 C         0.230908         0.042437         0.055796
 O         1.479020        -0.135262         0.164585
 C        -0.729441        -1.112781         0.081531
 C        -0.196980        -2.576565         0.151921
 O        -1.735302        -0.691756        -1.032636
 H        -2.282768        -2.594348         1.282752
 H        -2.754280        -1.732582         2.721241
 H        -3.714172        -1.477331         1.030728
 H        -1.133614        -0.032686         1.913721
 H        -2.947610         0.708288        -0.157321
 H        -0.664676         1.723251        -1.120884
 H        -0.510791         1.802326         0.799083
 H         0.364932        -2.624150         1.137802
 H        -0.961750        -3.352999         0.091086
 H         0.695569        -2.621807        -0.574572
