19
Iteration:   162charge 0 multiplicity 1
 C        -2.948472        -1.591881         1.407267
 C        -1.674666        -0.747930         1.254256
 C        -1.971625         0.345084         0.046308
 C        -0.648803         1.312793        -0.238485
 C         0.323484         0.116606        -0.020099
 O         1.520846         0.210311         0.138405
 C        -0.647913        -1.190210         0.166457
 C        -0.196646        -2.653858         0.189977
 O        -1.777729        -0.940078        -0.835962
 H        -2.772756        -2.550969         1.948611
 H        -3.730929        -1.089438         2.011832
 H        -3.267080        -1.823675         0.374269
 H        -1.277993        -0.310384         2.181568
 H        -2.970807         0.735069        -0.063809
 H        -0.705398         1.713275        -1.382312
 H        -0.594108         1.989119         0.599175
 H         0.210151        -2.942404         1.190891
 H        -1.036150        -3.334680        -0.105588
 H         0.661935        -2.831256        -0.531554
