19
Iteration:   475
 C        -3.081069        -1.628131         1.621415
 C        -1.762001        -0.732883         1.140459
 C        -1.930048         0.287070        -0.065886
 C        -0.714587         1.262175        -0.059624
 C         0.268296         0.118443         0.054005
 O         1.474817        -0.021819        -0.006763
 C        -0.753323        -1.227267         0.097277
 C        -0.044143        -2.550309         0.291275
 O        -1.573163        -0.703520        -1.015190
 H        -2.547031        -2.408084         2.092888
 H        -3.551433        -0.994391         2.343728
 H        -3.653148        -1.853277         0.749771
 H        -1.285458        -0.359134         2.056810
 H        -3.016363         0.747270        -0.206365
 H        -0.705593         1.724502        -0.989753
 H        -0.673338         1.968551         0.882903
 H         0.767639        -2.299131         0.978705
 H        -0.672669        -3.295514         0.852629
 H         0.343360        -3.013512        -0.644938
