19
Iteration:   823
 C        -2.912989        -1.541876         1.472945
 C        -1.777415        -0.670028         1.275420
 C        -2.011129         0.300629        -0.040999
 C        -0.764176         1.181070        -0.077984
 C         0.345887         0.035330         0.072655
 O         1.536038         0.146558        -0.097627
 C        -0.674060        -1.212831         0.284621
 C        -0.215165        -2.669298         0.151468
 O        -1.598115        -0.767107        -0.849713
 H        -2.684947        -2.535486         1.968479
 H        -3.790423        -1.129378         2.041912
 H        -3.296797        -1.820390         0.463871
 H        -1.583362        -0.049063         2.205027
 H        -3.032454         0.804747        -0.301872
 H        -0.517200         1.603642        -1.051262
 H        -0.533595         2.124427         0.523481
 H        -0.049983        -3.135897         1.152063
 H        -0.934319        -3.323168        -0.409532
 H         0.760053        -2.721201        -0.365646
