19
Iteration:  4815
 C        -2.708618        -1.609382         1.665964
 C        -1.713424        -0.542234         1.124384
 C        -2.010377         0.421394        -0.128654
 C        -0.676430         1.200611        -0.120001
 C         0.248182        -0.053119         0.045042
 O         1.410277        -0.016884         0.314097
 C        -0.755261        -1.185572         0.071969
 C        -0.255227        -2.603014         0.060985
 O        -1.663224        -0.784474        -0.972182
 H        -3.486494        -1.691438         0.939526
 H        -2.276015        -2.555854         1.837125
 H        -3.124389        -1.184823         2.551751
 H        -1.341164        -0.054739         1.978065
 H        -2.979449         0.825160        -0.378979
 H        -0.260937         1.751181        -1.012378
 H        -0.593745         1.992866         0.692884
 H         0.413870        -2.815498         0.953094
 H        -1.120961        -3.256016        -0.172483
 H         0.492876        -2.773557        -0.767391
