19
Iteration:  3495charge 0 multiplicity 1
 C        -2.883579        -1.598510         1.455233
 C        -1.733525        -0.566921         1.179958
 C        -1.955874         0.349555        -0.021761
 C        -0.748253         1.153407        -0.026782
 C         0.287742         0.018547         0.043193
 O         1.452155        -0.070995         0.015356
 C        -0.703856        -1.153556         0.189127
 C        -0.224988        -2.538471         0.238601
 O        -1.599727        -0.728196        -0.956381
 H        -3.474439        -1.912446         0.605494
 H        -2.399744        -2.571618         1.596734
 H        -3.467842        -1.471429         2.394186
 H        -1.477349         0.057642         2.093897
 H        -2.960645         0.757016        -0.184508
 H        -0.602880         1.910778        -0.911401
 H        -0.329752         1.894609         0.821626
 H         0.829100        -2.532532         0.461806
 H        -0.678375        -3.229755         0.864778
 H        -0.300654        -3.120820        -0.656411
