19
Iteration:  4893charge 0 multiplicity 1
 C        -3.047547        -1.553206         1.512382
 C        -1.759506        -0.561471         1.260570
 C        -2.012488         0.353823        -0.007309
 C        -0.665411         1.168295        -0.099776
 C         0.333317        -0.008415         0.074555
 O         1.536730        -0.001376         0.051376
 C        -0.679988        -1.177446         0.209672
 C        -0.163023        -2.536282        -0.033219
 O        -1.624136        -0.825751        -0.800853
 H        -3.003171        -2.296933         0.716018
 H        -2.810434        -2.135649         2.326992
 H        -3.978117        -1.062533         1.462007
 H        -1.510459        -0.074774         2.167983
 H        -3.001855         0.824854        -0.288628
 H        -0.755054         1.670452        -1.134672
 H        -0.278536         1.724852         0.873932
 H         0.715884        -2.822188         0.675043
 H        -1.088116        -3.352538        -0.046390
 H         0.277284        -2.503823        -1.030059
