19
Iteration:  4165charge 0 multiplicity 1
 C        -2.834910        -1.481940         1.568013
 C        -1.743935        -0.551784         1.165058
 C        -2.073942         0.349050        -0.030788
 C        -0.703279         1.191866        -0.046090
 C         0.253129        -0.005050         0.118298
 O         1.514846        -0.138700         0.170204
 C        -0.669909        -1.117536         0.108446
 C        -0.068730        -2.532935         0.001685
 O        -1.790124        -0.883054        -0.932167
 H        -3.542668        -1.503743         0.742013
 H        -2.480418        -2.414047         2.029779
 H        -3.452924        -1.065394         2.392034
 H        -1.234267        -0.084238         1.929117
 H        -3.042509         0.870113        -0.148719
 H        -0.441815         1.740508        -0.904638
 H        -0.511345         1.997989         0.632956
 H         0.820079        -2.547286         0.632038
 H        -0.699998        -3.398507         0.029234
 H         0.311455        -2.516791        -1.029075
