19
Iteration:    20
 C        -2.805286        -1.519134         1.345460
 C        -1.697383        -0.522670         1.232408
 C        -2.026053         0.358414        -0.014504
 C        -0.710321         1.185927        -0.164581
 C         0.297266         0.035153         0.099281
 O         1.498764         0.167836         0.171844
 C        -0.688101        -1.231437         0.224557
 C        -0.175639        -2.645123         0.007021
 O        -1.757495        -0.972319        -0.755949
 H        -2.466013        -2.389995         1.960607
 H        -3.634706        -1.193592         1.993859
 H        -3.242366        -1.871351         0.411596
 H        -1.342829        -0.082673         2.159755
 H        -3.030555         0.734550        -0.238074
 H        -0.587605         1.667723        -1.216424
 H        -0.652489         1.879956         0.579429
 H         0.840721        -2.709708         0.517805
 H        -0.928493        -3.407904         0.285908
 H         0.077604        -2.726747        -1.126171
