19
Iteration:  1165
 C        -2.866686        -1.629291         1.573741
 C        -1.740596        -0.652239         1.135074
 C        -1.961615         0.343557        -0.052437
 C        -0.718202         1.268314         0.008471
 C         0.283917        -0.000354         0.047952
 O         1.451888        -0.079760        -0.015691
 C        -0.756142        -1.149542         0.177058
 C        -0.130518        -2.511615         0.169293
 O        -1.682570        -0.757018        -0.940809
 H        -2.361920        -2.561700         1.929207
 H        -3.539242        -1.255788         2.380655
 H        -3.569374        -1.875343         0.770174
 H        -1.440936        -0.072035         1.989722
 H        -2.864111         0.775117        -0.359908
 H        -0.535955         1.902254        -0.891554
 H        -0.360029         1.867372         1.013401
 H         0.182248        -2.605993         1.201650
 H        -0.700971        -3.414305        -0.230053
 H         0.783141        -2.438452        -0.490290
