19
Iteration:  4776charge 0 multiplicity 1
 C        -2.901884        -1.560731         1.605773
 C        -1.748989        -0.678531         1.235557
 C        -2.026903         0.369990        -0.049438
 C        -0.693207         1.186970        -0.198022
 C         0.326233        -0.055988         0.020961
 O         1.489288        -0.000569         0.253787
 C        -0.720291        -1.156658         0.155949
 C        -0.195961        -2.529251        -0.001171
 O        -1.601140        -0.755191        -0.928715
 H        -3.701812        -1.873641         0.830321
 H        -2.574053        -2.617237         2.055265
 H        -3.417393        -0.965220         2.433525
 H        -1.348011        -0.030083         2.136730
 H        -3.047704         0.859310        -0.303333
 H        -0.727429         1.495302        -1.235664
 H        -0.396768         1.859872         0.605122
 H         0.624890        -2.731088         0.678575
 H        -1.068760        -3.253578         0.111497
 H         0.211620        -2.599987        -1.018351
