19
Iteration:  1830charge 0 multiplicity 1
 C        -2.850879        -1.535460         1.552724
 C        -1.716208        -0.661214         1.239730
 C        -2.017816         0.409310         0.019516
 C        -0.690973         1.163980        -0.012489
 C         0.195449        -0.016632         0.062737
 O         1.409248        -0.114241        -0.019311
 C        -0.755082        -1.146147         0.063414
 C        -0.039598        -2.482960         0.163884
 O        -1.650707        -0.791302        -0.918699
 H        -2.562492        -2.570876         1.672304
 H        -3.436290        -1.432919         2.449234
 H        -3.511854        -1.572291         0.695174
 H        -1.293346        -0.049389         2.059986
 H        -2.918316         0.948403        -0.418969
 H        -0.586007         1.714034        -0.916062
 H        -0.603264         2.005929         0.727600
 H         0.917480        -2.382148         0.652346
 H        -0.669859        -3.223963         0.552973
 H         0.252253        -2.763478        -0.816909
