19
Iteration:  2914
 C        -2.898180        -1.525736         1.325742
 C        -1.674476        -0.639065         1.205168
 C        -1.978694         0.328749         0.018553
 C        -0.748063         1.172136        -0.080980
 C         0.306040         0.024884         0.064793
 O         1.507811         0.041631         0.049639
 C        -0.665284        -1.169379         0.147707
 C        -0.263998        -2.640218         0.225709
 O        -1.649250        -0.761973        -0.834568
 H        -2.959002        -2.174176         0.419871
 H        -2.665915        -2.218622         2.176559
 H        -3.878882        -1.105247         1.554473
 H        -1.231992        -0.213012         2.137536
 H        -2.900283         0.804806        -0.228334
 H        -0.758691         1.593304        -1.112529
 H        -0.651663         2.105010         0.603752
 H         0.800568        -2.579881         0.638618
 H        -0.861443        -3.269368         1.041753
 H        -0.325413        -3.070250        -0.825398
