19
Iteration:  2987charge 0 multiplicity 1
 C        -2.948745        -1.468938         1.677424
 C        -1.817455        -0.638515         1.148241
 C        -1.956803         0.302225        -0.112543
 C        -0.746565         1.164503        -0.071655
 C         0.229682         0.043346         0.063269
 O         1.456229        -0.102878         0.117532
 C        -0.774623        -1.217595         0.158612
 C        -0.062877        -2.516804         0.090251
 O        -1.522404        -0.750639        -0.990634
 H        -3.489180        -2.060976         0.897846
 H        -2.606880        -2.278932         2.394463
 H        -3.653052        -0.895693         2.341401
 H        -1.111140        -0.342467         1.952210
 H        -3.010314         0.683844        -0.335918
 H        -0.501389         1.780984        -1.032800
 H        -0.662525         1.976886         0.680100
 H         0.577241        -2.613276         0.946658
 H        -0.919275        -3.188448         0.199562
 H         0.592868        -2.467837        -0.796585
