19
Iteration:  2143
 C        -3.016170        -1.597239         1.460430
 C        -1.704816        -0.720232         1.261411
 C        -1.919431         0.314161         0.136713
 C        -0.652923         1.197614        -0.083419
 C         0.338833         0.021096         0.049504
 O         1.495385         0.176309        -0.128036
 C        -0.692904        -1.208507         0.246149
 C        -0.268880        -2.669011         0.066957
 O        -1.633256        -0.738535        -0.822455
 H        -3.563260        -1.052990         2.220903
 H        -3.560871        -1.650214         0.477569
 H        -2.706225        -2.563929         1.858139
 H        -1.333832        -0.361731         2.232939
 H        -2.855600         0.818288        -0.027742
 H        -0.658108         1.768985        -0.979565
 H        -0.403590         2.009671         0.689325
 H         0.760030        -2.880566         0.176540
 H        -0.793249        -3.395981         0.660825
 H        -0.450503        -2.784870        -1.027858
