19
Iteration:  3696charge 0 multiplicity 1
 C        -2.960271        -1.527825         1.553677
 C        -1.747780        -0.707336         1.230592
 C        -1.995628         0.369331         0.046621
 C        -0.776481         1.170288        -0.079825
 C         0.294124        -0.018818         0.032712
 O         1.551202         0.053935         0.031059
 C        -0.746345        -1.191493         0.179993
 C        -0.169890        -2.584478         0.122339
 O        -1.565498        -0.747378        -0.940418
 H        -3.480093        -1.646120         0.583580
 H        -2.788325        -2.468608         2.091060
 H        -3.603733        -0.853211         2.104822
 H        -1.327050        -0.190135         2.090156
 H        -3.003268         0.812451        -0.123884
 H        -0.494825         1.301691        -1.083092
 H        -0.656837         2.055383         0.579156
 H         0.574968        -2.957237         0.731358
 H        -0.856136        -3.435970         0.095759
 H         0.324689        -2.675715        -0.825445
