19
Iteration:  1890charge 0 multiplicity 1
 C        -2.961863        -1.524893         1.483488
 C        -1.632571        -0.749134         1.214390
 C        -1.942850         0.311683         0.074539
 C        -0.697524         1.225210        -0.120725
 C         0.272277         0.089511         0.135959
 O         1.493424         0.170263        -0.060564
 C        -0.652966        -1.265919         0.243884
 C        -0.280184        -2.665325         0.153946
 O        -1.614135        -0.775102        -0.934331
 H        -2.655613        -2.595388         1.529227
 H        -3.355779        -1.219318         2.469150
 H        -3.785686        -1.420831         0.723631
 H        -1.388946        -0.265047         2.139158
 H        -2.952774         0.804870        -0.014841
 H        -0.721074         1.572330        -1.226774
 H        -0.615524         2.033836         0.603254
 H         0.765435        -2.929103         0.362320
 H        -0.890014        -3.388874         0.753346
 H        -0.483220        -3.001414        -0.921357
