19
Iteration:  2374charge 0 multiplicity 1
 C        -3.118594        -1.585044         1.558263
 C        -1.796931        -0.687817         1.308048
 C        -1.948384         0.320803         0.048340
 C        -0.711206         1.206067        -0.074310
 C         0.355690         0.005023         0.044646
 O         1.561030         0.070320        -0.053845
 C        -0.710192        -1.190201         0.191067
 C        -0.098443        -2.584359         0.062078
 O        -1.595402        -0.759676        -0.917438
 H        -3.103033        -2.614522         1.143858
 H        -3.281802        -1.654445         2.603169
 H        -3.954217        -1.055953         1.078982
 H        -1.410190        -0.130086         2.211624
 H        -2.887307         0.825017        -0.189674
 H        -0.630459         1.518958        -1.132817
 H        -0.774659         2.018588         0.684192
 H         0.663527        -2.658261         0.833005
 H        -0.841421        -3.381770         0.248535
 H         0.343318        -2.689653        -0.874381
