19
Iteration:  4145
 C        -2.896531        -1.463234         1.562576
 C        -1.672182        -0.696729         1.242497
 C        -1.962047         0.332233        -0.002344
 C        -0.726052         1.177222        -0.113224
 C         0.246200         0.010252         0.050461
 O         1.495915        -0.093096         0.147122
 C        -0.753080        -1.180238         0.097930
 C        -0.077370        -2.519489         0.022458
 O        -1.724523        -0.772033        -0.911290
 H        -3.449394        -1.568724         0.686609
 H        -2.522253        -2.309840         2.056555
 H        -3.467022        -1.028663         2.331043
 H        -1.206566        -0.176896         2.067201
 H        -2.947744         0.721400        -0.163594
 H        -0.689702         1.790767        -1.056996
 H        -0.841279         1.956171         0.613246
 H         0.431105        -2.639623         0.984269
 H        -0.858555        -3.299886        -0.035307
 H         0.530054        -2.568525        -0.854106
