19
Iteration:  3023charge 0 multiplicity 1
 C        -2.813138        -1.510497         1.504893
 C        -1.716297        -0.583782         1.156113
 C        -1.989589         0.304184        -0.056783
 C        -0.637660         1.156015        -0.159091
 C         0.284381         0.016601         0.043949
 O         1.502911         0.045033         0.227860
 C        -0.759737        -1.154098         0.112716
 C        -0.134602        -2.566196         0.160421
 O        -1.791384        -0.825853        -0.900035
 H        -3.444624        -1.708665         0.600764
 H        -2.261206        -2.446516         1.811668
 H        -3.521026        -1.172850         2.268641
 H        -1.138662        -0.254049         2.071287
 H        -2.882694         0.843634        -0.204120
 H        -0.569817         1.526696        -1.152828
 H        -0.787285         1.848110         0.544985
 H        -0.014343        -2.953560         1.235250
 H        -0.985337        -3.225237        -0.319154
 H         0.647123        -2.945988        -0.518415
