19
Iteration:   614
 C        -2.804964        -1.565183         1.808824
 C        -1.802899        -0.586759         1.143516
 C        -2.054781         0.310289        -0.140136
 C        -0.781297         1.146825        -0.097508
 C         0.279029        -0.000327         0.060711
 O         1.453474        -0.085755         0.186590
 C        -0.682681        -1.129825         0.091389
 C        -0.137568        -2.476248         0.093293
 O        -1.570568        -0.789356        -1.052649
 H        -2.407714        -2.154531         2.721621
 H        -3.768619        -1.035446         2.055141
 H        -3.168688        -2.232816         0.967550
 H        -1.439455         0.049793         1.993272
 H        -3.009416         0.706819        -0.456187
 H        -0.591110         1.495617        -1.099222
 H        -0.760030         1.968059         0.634253
 H         0.208654        -2.792074         1.063601
 H        -0.886631        -3.187997        -0.298432
 H         0.748660        -2.244600        -0.523778
