19
Iteration:  4775charge 0 multiplicity 1
 C        -2.909628        -1.556443         1.602686
 C        -1.744735        -0.674214         1.240049
 C        -2.019106         0.368400        -0.044240
 C        -0.690455         1.186811        -0.191748
 C         0.322840        -0.050586         0.018156
 O         1.485774         0.003468         0.251567
 C        -0.720612        -1.166756         0.158852
 C        -0.191741        -2.533308        -0.003915
 O        -1.604939        -0.758494        -0.930138
 H        -3.686670        -1.882205         0.822564
 H        -2.570086        -2.581260         2.042950
 H        -3.420003        -0.957570         2.397807
 H        -1.332656        -0.059450         2.146210
 H        -3.032139         0.861556        -0.345740
 H        -0.785880         1.502836        -1.242346
 H        -0.365906         1.853306         0.629452
 H         0.643929        -2.696320         0.642412
 H        -1.096009        -3.252398         0.110250
 H         0.225947        -2.633902        -0.973919
