19
Iteration:  4238
 C        -2.765423        -1.546964         1.518843
 C        -1.659782        -0.575678         1.188231
 C        -2.002813         0.334131         0.000384
 C        -0.699409         1.197523        -0.062134
 C         0.276508         0.013823        -0.044437
 O         1.504245         0.083075         0.236356
 C        -0.706553        -1.180077         0.140276
 C        -0.311916        -2.666333         0.039380
 O        -1.689848        -0.837232        -0.936031
 H        -3.054483        -2.133010         0.603531
 H        -2.664840        -2.121547         2.456351
 H        -3.745717        -1.008712         1.652255
 H        -1.121498        -0.077714         2.135820
 H        -2.970356         0.856578        -0.237145
 H        -0.457534         1.989690        -0.778754
 H        -0.371031         1.826996         0.858943
 H         0.713845        -3.018295         0.282131
 H        -1.043398        -3.268734         0.592330
 H        -0.651443        -2.934502        -1.009220
