19
Iteration:  2011charge 0 multiplicity 1
 C        -2.796210        -1.539002         1.579469
 C        -1.561919        -0.666045         1.208276
 C        -1.989570         0.353176         0.004788
 C        -0.806027         1.163487        -0.071461
 C         0.375078         0.023368        -0.029665
 O         1.548030         0.185528         0.182964
 C        -0.674363        -1.183557         0.099094
 C        -0.351711        -2.739274        -0.061115
 O        -1.796785        -0.764286        -0.845537
 H        -3.289283        -0.977237         2.405208
 H        -3.484975        -1.855267         0.744317
 H        -2.451430        -2.453776         2.121660
 H        -1.169486        -0.200501         2.100928
 H        -2.947537         0.851358        -0.119594
 H        -0.573743         1.623894        -1.053288
 H        -0.495400         1.774565         0.799157
 H        -0.169803        -3.285137         0.858017
 H        -1.127548        -3.247253        -0.591883
 H         0.574621        -2.946565        -0.687616
