19
Iteration:  2476
 C        -2.838235        -1.659965         1.556435
 C        -1.786142        -0.619873         1.146814
 C        -1.937035         0.381868         0.012976
 C        -0.746976         1.305966        -0.169847
 C         0.200626         0.006588         0.101715
 O         1.420891        -0.157908         0.129350
 C        -0.700571        -1.128261         0.104402
 C        -0.111081        -2.542550         0.169832
 O        -1.619606        -0.699270        -0.969188
 H        -3.769582        -1.821260         0.978545
 H        -2.315455        -2.688718         1.592449
 H        -3.144211        -1.423920         2.606611
 H        -1.199325        -0.199675         2.076150
 H        -2.910966         0.834260        -0.149483
 H        -0.779289         1.469396        -1.309069
 H        -0.600905         2.181476         0.475930
 H         0.288846        -2.459195         1.184979
 H        -0.814728        -3.342601         0.243053
 H         0.683424        -2.797847        -0.607582
