19
Iteration:   135
 C        -2.848640        -1.591149         1.526757
 C        -1.743143        -0.667960         1.258571
 C        -2.049051         0.316593         0.038632
 C        -0.703689         1.099144        -0.281458
 C         0.243227        -0.003875         0.046710
 O         1.450333         0.099270         0.201287
 C        -0.665555        -1.144884         0.179867
 C        -0.161786        -2.586029         0.091140
 O        -1.625512        -0.699718        -0.921677
 H        -2.515458        -2.335855         2.262051
 H        -3.749415        -1.122844         1.941539
 H        -3.041695        -2.113904         0.587291
 H        -1.353357        -0.133622         2.150845
 H        -3.044403         0.761926        -0.230342
 H        -0.754543         1.124692        -1.283004
 H        -0.499849         2.059672         0.266978
 H         0.474316        -2.724446         0.952545
 H        -0.921311        -3.337203        -0.048043
 H         0.579844        -2.665495        -0.664243
