19
Iteration:  2293
 C        -2.875028        -1.614388         1.693141
 C        -1.675644        -0.691695         1.197468
 C        -1.921657         0.319167         0.036528
 C        -0.676803         1.153672        -0.201011
 C         0.314700         0.027931         0.021327
 O         1.481032         0.157398         0.238411
 C        -0.737360        -1.151137         0.021921
 C        -0.309865        -2.655607         0.016852
 O        -1.694921        -0.723861        -0.949769
 H        -2.464822        -2.592335         1.573383
 H        -3.179289        -1.426261         2.753428
 H        -3.759431        -1.549428         1.086145
 H        -1.151386        -0.312181         2.097217
 H        -2.870834         0.926844        -0.258462
 H        -0.619923         1.530248        -1.231071
 H        -0.351434         1.974564         0.479302
 H         0.089323        -2.867038         1.038417
 H        -1.067992        -3.395250        -0.210893
 H         0.604563        -2.911766        -0.653485
