19
Iteration:  3131charge 0 multiplicity 1
 C        -2.999663        -1.457882         1.652969
 C        -1.810002        -0.656469         1.172542
 C        -1.924801         0.253682        -0.025302
 C        -0.756038         1.205044        -0.070875
 C         0.220034        -0.018370         0.145652
 O         1.437216        -0.084052         0.081514
 C        -0.724701        -1.195001         0.127902
 C        -0.060018        -2.516962         0.105332
 O        -1.548842        -0.731083        -1.056983
 H        -3.447323        -2.024382         0.785316
 H        -2.582212        -2.184654         2.437720
 H        -3.748415        -0.810254         2.134360
 H        -1.162790        -0.291579         1.990040
 H        -2.893893         0.617032        -0.219402
 H        -0.725982         1.736094        -1.130118
 H        -0.392262         2.080137         0.641563
 H         0.893555        -2.440738         0.669453
 H        -0.609655        -3.359510         0.585455
 H         0.342315        -2.691698        -0.864993
