19
Iteration:  1454charge 0 multiplicity 1
 C        -2.785989        -1.560007         1.603228
 C        -1.723638        -0.620609         1.193238
 C        -2.043818         0.345201         0.098119
 C        -0.742504         1.219427        -0.074873
 C         0.244121         0.033130         0.053486
 O         1.508515         0.049561         0.048042
 C        -0.700197        -1.175343         0.169151
 C        -0.289568        -2.638495         0.052929
 O        -1.576422        -0.810037        -0.970477
 H        -2.350243        -2.534305         2.003857
 H        -3.566069        -1.003008         2.184210
 H        -3.249136        -1.913690         0.634474
 H        -1.257774        -0.080341         2.022791
 H        -2.925588         0.825677        -0.220394
 H        -0.648247         1.494761        -1.238579
 H        -0.649603         2.033335         0.703084
 H         0.129355        -2.978859         1.027907
 H        -1.230203        -3.184905        -0.172681
 H         0.564838        -2.767868        -0.602886
