19
Iteration:  2554
 C        -2.905734        -1.499736         1.674605
 C        -1.755881        -0.704949         1.219802
 C        -1.935981         0.267668         0.037274
 C        -0.799979         1.109715        -0.155895
 C         0.297828         0.012145         0.074996
 O         1.495408         0.088322         0.196857
 C        -0.708958        -1.137258         0.092141
 C        -0.262103        -2.586714        -0.037166
 O        -1.511493        -0.776108        -0.962725
 H        -3.283328        -2.135626         0.840903
 H        -2.964998        -2.094140         2.647937
 H        -3.726292        -0.744780         1.817097
 H        -1.129479        -0.092314         1.914529
 H        -2.945825         0.768128        -0.082672
 H        -0.676818         1.484779        -1.166863
 H        -0.577264         1.993105         0.491729
 H         0.297566        -2.924739         0.792452
 H        -1.170149        -3.159520        -0.311077
 H         0.519464        -2.660708        -0.829127
