19
Iteration:  3229
 C        -2.972967        -1.634306         1.583305
 C        -1.772645        -0.618006         1.152278
 C        -2.043304         0.357256        -0.031525
 C        -0.720814         1.194285        -0.017060
 C         0.270450        -0.053899         0.047133
 O         1.539413        -0.013842         0.032649
 C        -0.744556        -1.145353         0.153874
 C        -0.138069        -2.577122         0.160863
 O        -1.554532        -0.709806        -0.962853
 H        -3.231601        -2.248230         0.723990
 H        -2.522522        -2.170459         2.428557
 H        -3.852156        -1.075913         1.814857
 H        -1.296658        -0.109544         1.985388
 H        -2.933977         0.807029        -0.452112
 H        -0.684052         1.908522        -0.937391
 H        -0.567797         2.071055         0.746487
 H         0.835860        -2.607377         0.492419
 H        -0.667362        -3.145211         0.918744
 H        -0.143307        -3.165057        -0.702815
