19
Iteration:  3051charge 0 multiplicity 1
 C        -2.857883        -1.637402         1.519224
 C        -1.691230        -0.604816         1.223863
 C        -1.923450         0.358311         0.060751
 C        -0.689832         1.171574        -0.278166
 C         0.303069         0.050105        -0.080574
 O         1.438077         0.087185         0.268416
 C        -0.695796        -1.154492         0.173517
 C        -0.287287        -2.667142         0.161226
 O        -1.623195        -0.739347        -0.920056
 H        -3.227507        -1.955839         0.536858
 H        -2.445657        -2.503678         2.025927
 H        -3.610234        -1.151854         2.165495
 H        -1.196689        -0.307333         2.136368
 H        -2.903379         0.942397        -0.085127
 H        -0.917294         1.251449        -1.416986
 H        -0.616898         2.290174         0.132158
 H        -0.240909        -3.179062         1.076220
 H        -1.088070        -3.164909        -0.341342
 H         0.551026        -3.011195        -0.427446
