19
Iteration:  3453
 C        -3.029483        -1.517186         1.427378
 C        -1.799750        -0.644912         1.259395
 C        -1.884919         0.323252         0.090135
 C        -0.633791         1.166438        -0.115877
 C         0.261468         0.025574         0.009692
 O         1.495237         0.080370        -0.002086
 C        -0.691121        -1.246922         0.222863
 C        -0.134054        -2.614818         0.106022
 O        -1.639612        -0.784436        -0.837759
 H        -3.188734        -1.955188         0.440416
 H        -2.809964        -2.403667         2.093668
 H        -3.872832        -0.845676         1.776365
 H        -1.441311        -0.266689         2.230260
 H        -2.776438         0.993652        -0.151752
 H        -0.774849         1.542995        -1.112471
 H        -0.659052         1.982565         0.654852
 H         0.908237        -2.505420         0.459608
 H        -0.737126        -3.305222         0.741798
 H        -0.165187        -2.908844        -0.961936
