19
Iteration:   357charge 0 multiplicity 1
 C        -2.741890        -1.520922         1.808670
 C        -1.747392        -0.574992         1.076394
 C        -2.042751         0.224756        -0.216726
 C        -0.762040         1.198175        -0.067598
 C         0.227533         0.032127         0.019200
 O         1.397788        -0.085914         0.336273
 C        -0.704645        -1.140000         0.037626
 C        -0.058505        -2.468657         0.078429
 O        -1.657807        -0.828618        -1.089868
 H        -2.182144        -2.309445         2.368321
 H        -3.246622        -0.844490         2.538787
 H        -3.474225        -2.035985         1.131352
 H        -1.344799         0.027226         1.956194
 H        -3.013531         0.784454        -0.411694
 H        -0.699223         1.730641        -1.027000
 H        -0.709460         1.670675         0.969869
 H         0.467413        -2.482169         1.027695
 H        -0.907803        -3.193327         0.259606
 H         0.452156        -2.765248        -0.870183
