19
Iteration:  2102
 C        -2.900608        -1.541019         1.485483
 C        -1.666262        -0.671406         1.205731
 C        -1.978529         0.371907         0.069459
 C        -0.678185         1.224599         0.052784
 C         0.235621         0.037713         0.087989
 O         1.451450        -0.060982        -0.105696
 C        -0.700111        -1.224927         0.201855
 C        -0.094266        -2.558105         0.041131
 O        -1.746367        -0.740632        -0.906248
 H        -3.895831        -0.971622         1.524409
 H        -3.007740        -2.454895         0.851354
 H        -2.876824        -1.846666         2.563347
 H        -1.187066        -0.379487         2.130881
 H        -2.956185         0.695061         0.024454
 H        -0.510473         1.894459        -0.769865
 H        -0.500651         1.763388         0.996147
 H         0.866726        -2.483674         0.643868
 H        -0.769004        -3.469207         0.253780
 H         0.168533        -2.626110        -1.041525
