19
Iteration:   318charge 0 multiplicity 1
 C        -2.893832        -1.587788         1.528759
 C        -1.719146        -0.667999         1.175900
 C        -1.943529         0.341353        -0.042773
 C        -0.688305         1.195599        -0.259099
 C         0.237415         0.072980         0.044930
 O         1.429211         0.157817         0.220963
 C        -0.596303        -1.198622         0.274721
 C        -0.178722        -2.634537         0.073536
 O        -1.702891        -0.833409        -0.863409
 H        -2.562921        -2.546341         1.930224
 H        -3.476109        -1.138019         2.344494
 H        -3.597647        -1.809163         0.741760
 H        -1.335581        -0.200748         2.058605
 H        -2.905746         0.674308        -0.283740
 H        -0.575622         1.435664        -1.345437
 H        -0.423657         2.101102         0.127164
 H         0.655367        -2.983396         0.685311
 H        -1.013326        -3.326449         0.128268
 H         0.230587        -2.682646        -0.922703
