19
Iteration:  2659
 C        -3.080820        -1.513546         1.408922
 C        -1.756209        -0.654247         1.247524
 C        -1.920963         0.272785         0.008777
 C        -0.699305         1.090441        -0.051844
 C         0.295787         0.091852         0.078626
 O         1.508472         0.162403        -0.008779
 C        -0.662274        -1.177217         0.258668
 C        -0.217163        -2.625352         0.117739
 O        -1.557509        -0.842890        -0.875670
 H        -3.769785        -1.435644         0.609779
 H        -2.705489        -2.497702         1.604893
 H        -3.465914        -1.099707         2.321855
 H        -1.498234        -0.072584         2.109156
 H        -2.746041         0.887985        -0.302984
 H        -0.698827         1.480174        -1.118649
 H        -0.416155         1.812420         0.684309
 H         0.806626        -2.784637         0.571633
 H        -0.775058        -3.430110         0.566851
 H        -0.221006        -2.826004        -0.987885
