19
Iteration:  2349
 C        -2.847255        -1.613486         1.548192
 C        -1.784949        -0.581903         1.156612
 C        -2.003315         0.417377        -0.047585
 C        -0.708494         1.244483        -0.029619
 C         0.261311        -0.051829         0.066842
 O         1.441224        -0.111214         0.044561
 C        -0.723866        -1.143288         0.219026
 C        -0.074078        -2.489362         0.061585
 O        -1.681120        -0.823220        -0.909350
 H        -2.629451        -2.585733         1.235051
 H        -2.886467        -1.634654         2.636415
 H        -3.762982        -1.333094         1.081517
 H        -1.467955         0.072841         1.943676
 H        -3.063520         0.873019        -0.322351
 H        -0.432902         1.724814        -0.919326
 H        -0.469812         1.785602         0.947216
 H         0.568236        -2.594536         0.941766
 H        -0.868121        -3.250837         0.124250
 H         0.642521        -2.534599        -0.808862
