19
Iteration:  3471charge 0 multiplicity 1
 C        -2.995564        -1.627434         1.416447
 C        -1.728109        -0.649035         1.233234
 C        -2.010640         0.385461         0.018147
 C        -0.696722         1.221786        -0.124923
 C         0.311607         0.042134         0.096782
 O         1.564749         0.003596        -0.031456
 C        -0.704489        -1.175075         0.210404
 C        -0.187507        -2.576839         0.196613
 O        -1.645968        -0.751094        -0.868148
 H        -3.513545        -1.841092         0.471276
 H        -2.856494        -2.613207         1.837292
 H        -3.656584        -1.140323         2.113792
 H        -1.328817        -0.421149         2.289162
 H        -3.006466         0.673640        -0.119900
 H        -0.408549         1.735218        -1.143470
 H        -0.397782         2.094103         0.562666
 H         0.862361        -2.665355         0.466621
 H        -0.719773        -3.238775         0.817021
 H        -0.305205        -3.109127        -0.736269
