19
Iteration:  1986
 C        -2.832661        -1.571094         1.651566
 C        -1.635911        -0.631964         1.253705
 C        -1.904870         0.287625         0.082961
 C        -0.698200         1.250650        -0.130864
 C         0.250535         0.017087         0.030455
 O         1.497339         0.062595         0.179342
 C        -0.733704        -1.159324         0.062476
 C        -0.239467        -2.577799        -0.046683
 O        -1.762241        -0.820807        -0.937608
 H        -3.117098        -1.468223         2.697870
 H        -3.629050        -1.336017         0.991680
 H        -2.642932        -2.641307         1.502256
 H        -1.160918        -0.029394         2.081572
 H        -3.021004         0.697996        -0.063003
 H        -0.772219         1.436378        -1.275164
 H        -0.218185         1.995523         0.505599
 H         0.072779        -3.102344         0.832056
 H        -1.035260        -3.154918        -0.503037
 H         0.521174        -2.684381        -0.750123
