19
Iteration:  4622charge 0 multiplicity 1
 C        -3.038847        -1.547260         1.450943
 C        -1.644100        -0.679059         1.227950
 C        -1.912922         0.309576         0.055430
 C        -0.696368         1.079942        -0.092285
 C         0.319464        -0.014565         0.091957
 O         1.510790         0.111911         0.031926
 C        -0.758159        -1.213331         0.154925
 C        -0.205678        -2.590707         0.133678
 O        -1.663278        -0.683074        -0.911234
 H        -3.660601        -1.476238         0.521000
 H        -2.737645        -2.520581         1.948305
 H        -3.589169        -1.045582         2.311543
 H        -1.030632        -0.389915         2.106934
 H        -2.904432         0.829722        -0.136047
 H        -0.689046         1.445301        -1.047862
 H        -0.478598         1.958527         0.405309
 H         0.104981        -2.741329         1.156036
 H        -0.796753        -3.466343        -0.310554
 H         0.690827        -2.625036        -0.431397
