19
Iteration:  4585
 C        -2.903770        -1.536846         1.551048
 C        -1.712812        -0.504811         1.222914
 C        -1.964969         0.311486        -0.074282
 C        -0.750068         1.240556        -0.112868
 C         0.312000        -0.001960         0.055331
 O         1.497569        -0.085383         0.170995
 C        -0.666633        -1.175231         0.180444
 C        -0.178662        -2.568006        -0.045249
 O        -1.686653        -0.813825        -0.850154
 H        -3.396784        -2.060144         0.709867
 H        -2.662812        -2.379573         2.192398
 H        -3.700893        -0.961910         2.062970
 H        -1.310972        -0.088553         2.212580
 H        -2.901989         0.777772        -0.227325
 H        -0.705354         1.659347        -1.172314
 H        -0.744248         1.810170         0.847099
 H         0.276439        -3.027459         0.870677
 H        -0.912144        -3.149034        -0.477034
 H         0.694246        -2.416722        -0.750121
