19
Iteration:  4101charge 0 multiplicity 1
 C        -2.884507        -1.609955         1.552442
 C        -1.715411        -0.641082         1.189897
 C        -2.016022         0.339861         0.031193
 C        -0.713623         1.159084        -0.077817
 C         0.379261         0.085435         0.122391
 O         1.566816         0.096114         0.003261
 C        -0.706925        -1.186168         0.147407
 C        -0.324854        -2.631897         0.076358
 O        -1.661325        -0.769537        -0.915708
 H        -3.147705        -2.052500         0.598158
 H        -2.637685        -2.193449         2.451764
 H        -3.736535        -1.081142         1.895961
 H        -1.147990        -0.360125         2.203697
 H        -3.026619         0.731467        -0.205117
 H        -0.502262         1.585713        -1.124924
 H        -0.487940         1.878745         0.728366
 H        -0.112790        -2.950278         1.125364
 H        -1.139679        -3.312380        -0.194487
 H         0.469661        -2.688163        -0.659155
