19
Iteration:  3464
 C        -3.043904        -1.578201         1.399421
 C        -1.703770        -0.734972         1.262994
 C        -1.951534         0.383879         0.030605
 C        -0.686776         1.210813        -0.156559
 C         0.320407         0.034120         0.102156
 O         1.532064         0.035706        -0.030046
 C        -0.702958        -1.138433         0.202586
 C        -0.192198        -2.618149         0.161808
 O        -1.650644        -0.759474        -0.827699
 H        -3.493028        -1.872773         0.450599
 H        -2.708447        -2.471595         2.006931
 H        -3.919786        -1.208638         2.037672
 H        -1.378065        -0.106795         2.058927
 H        -3.010563         0.798751        -0.166999
 H        -0.553366         1.681212        -1.137526
 H        -0.366563         1.971671         0.654213
 H         0.871969        -2.577605         0.462062
 H        -0.638551        -3.326722         0.903513
 H        -0.145435        -3.052163        -0.854988
