19
Iteration:  4487charge 0 multiplicity 1
 C        -2.881807        -1.527441         1.500806
 C        -1.699766        -0.525533         1.230553
 C        -1.975455         0.338049        -0.000372
 C        -0.673571         1.291618        -0.100749
 C         0.280695        -0.034160         0.016653
 O         1.508626         0.073473         0.210554
 C        -0.699869        -1.227968         0.202695
 C        -0.228323        -2.676505        -0.008223
 O        -1.666894        -0.861540        -0.878772
 H        -3.370092        -1.667404         0.486655
 H        -2.564018        -2.524597         1.952557
 H        -3.732991        -1.186623         2.227567
 H        -1.423883         0.047359         2.159142
 H        -2.932409         0.796167        -0.271322
 H        -0.612734         1.546100        -1.193224
 H        -0.676586         1.847048         0.728931
 H         0.858230        -2.701348         0.146784
 H        -0.866640        -3.473167         0.245322
 H        -0.375465        -2.768938        -1.150239
