19
Iteration:  3685
 C        -2.919348        -1.525530         1.578676
 C        -1.727311        -0.643158         1.211541
 C        -2.002352         0.360795         0.001589
 C        -0.644338         1.183112        -0.079262
 C         0.283285         0.007166         0.113017
 O         1.447522         0.048666         0.053103
 C        -0.698393        -1.215783         0.171831
 C        -0.175451        -2.624515         0.094517
 O        -1.615981        -0.795284        -1.011473
 H        -3.600967        -1.772487         0.743904
 H        -2.631834        -2.538597         1.929721
 H        -3.477173        -1.126615         2.422799
 H        -1.281958        -0.171843         2.089069
 H        -2.945135         0.896036        -0.267509
 H        -0.744988         1.768419        -0.943327
 H        -0.566231         2.014949         0.669578
 H         0.421889        -2.654939         0.987038
 H        -1.058738        -3.282971         0.109845
 H         0.419587        -2.731667        -0.788792
