19
Iteration:  2388
 C        -3.067931        -1.441347         1.500417
 C        -1.751973        -0.734684         1.169788
 C        -2.035170         0.274113         0.131596
 C        -0.723966         1.122195        -0.052014
 C         0.330954         0.023922         0.091396
 O         1.479666         0.147680        -0.083127
 C        -0.629331        -1.213609         0.187058
 C        -0.168064        -2.609334         0.085687
 O        -1.515770        -0.769883        -0.849760
 H        -3.094850        -2.435991         0.919915
 H        -3.380408        -1.654057         2.585607
 H        -3.908189        -0.828980         1.049628
 H        -1.302837        -0.452582         2.220999
 H        -3.009124         0.634378        -0.070635
 H        -0.753629         1.603315        -1.106660
 H        -0.222213         1.894811         0.507720
 H         0.730320        -2.751337         0.751258
 H        -1.001961        -3.240947         0.325733
 H         0.301746        -2.903378        -0.898110
