19
Iteration:  2843
 C        -2.890970        -1.436607         1.578142
 C        -1.737949        -0.543378         1.128795
 C        -1.963413         0.249395        -0.109428
 C        -0.756085         1.200759         0.001037
 C         0.256534         0.007789         0.041425
 O         1.419049        -0.074389         0.150648
 C        -0.714106        -1.169335         0.148453
 C        -0.055185        -2.588275         0.082226
 O        -1.625001        -0.808319        -0.926728
 H        -3.655826        -1.607621         0.800978
 H        -2.648057        -2.435308         1.977408
 H        -3.479812        -0.934715         2.415234
 H        -1.206777        -0.111015         2.001576
 H        -2.929021         0.689884        -0.460953
 H        -0.626914         1.799461        -0.902977
 H        -0.818392         1.791614         0.895722
 H         0.626957        -2.939279         0.879394
 H        -0.863529        -3.280577        -0.009085
 H         0.460058        -2.536134        -0.901975
