19
Iteration:  4582charge 0 multiplicity 1
 C        -2.862527        -1.523124         1.557950
 C        -1.733208        -0.525502         1.228079
 C        -1.956699         0.291610        -0.067808
 C        -0.741020         1.239091        -0.120052
 C         0.286642        -0.022240         0.065187
 O         1.517613        -0.088249         0.176944
 C        -0.681445        -1.177734         0.174094
 C        -0.184179        -2.538003        -0.040197
 O        -1.693787        -0.808485        -0.866801
 H        -3.308835        -1.980103         0.701100
 H        -2.655906        -2.306179         2.287996
 H        -3.683370        -1.012581         2.019522
 H        -1.438719        -0.035006         2.173387
 H        -2.964667         0.755658        -0.227489
 H        -0.608016         1.707375        -1.176718
 H        -0.838207         1.818551         0.905630
 H         0.305203        -2.903196         0.874198
 H        -0.957768        -3.208649        -0.584406
 H         0.670492        -2.459936        -0.771941
