19
Iteration:  1079charge 0 multiplicity 1
 C        -2.945404        -1.468316         1.538354
 C        -1.661065        -0.654031         1.267823
 C        -2.000617         0.323723        -0.016332
 C        -0.818376         1.185923        -0.027872
 C         0.294842         0.021493         0.058699
 O         1.518813         0.185026         0.052710
 C        -0.712464        -1.258987         0.187732
 C        -0.220062        -2.745336         0.001440
 O        -1.543409        -0.788722        -0.918768
 H        -2.709148        -2.107351         2.424728
 H        -3.787022        -0.764819         1.714770
 H        -3.181308        -2.140650         0.700987
 H        -1.320261        -0.001145         2.083348
 H        -2.960361         0.636095        -0.213535
 H        -0.438218         1.741184        -0.932336
 H        -0.727376         1.809257         0.855794
 H         0.795656        -2.989967         0.081580
 H        -0.803259        -3.321414         0.753222
 H        -0.482016        -3.089688        -1.003642
