19
Iteration:  2824
 C        -2.989093        -1.418475         1.666956
 C        -1.707155        -0.698728         1.193212
 C        -2.030713         0.348005        -0.004977
 C        -0.688115         1.197327        -0.127992
 C         0.289774        -0.013047         0.115509
 O         1.466210         0.078440         0.169452
 C        -0.688960        -1.209662         0.101634
 C        -0.168575        -2.597108        -0.019025
 O        -1.573419        -0.864978        -1.026782
 H        -3.536838        -1.825154         0.800409
 H        -2.770774        -2.335654         2.269721
 H        -3.642580        -0.782125         2.327159
 H        -1.241274        -0.257404         2.130706
 H        -3.055132         0.811629        -0.166229
 H        -0.565014         1.739200        -1.120045
 H        -0.549126         1.767163         0.743913
 H         0.257006        -2.737136         1.059395
 H        -0.992369        -3.416730        -0.108366
 H         0.837149        -2.719009        -0.603047
