19
Iteration:  1363charge 0 multiplicity 1
 C        -2.894951        -1.453557         1.520611
 C        -1.710346        -0.649982         1.220857
 C        -1.922703         0.291683         0.073366
 C        -0.789093         1.183209        -0.101140
 C         0.282855         0.057159         0.018064
 O         1.535644         0.122220         0.093582
 C        -0.647424        -1.229646         0.149553
 C        -0.239131        -2.643518        -0.032116
 O        -1.626663        -0.862928        -0.823336
 H        -2.771921        -2.386986         2.100719
 H        -3.675426        -0.886014         2.077441
 H        -3.312495        -1.824860         0.559328
 H        -1.518870         0.021768         2.079360
 H        -2.928950         0.763619        -0.070167
 H        -0.771554         1.641096        -1.068743
 H        -0.854768         1.751096         0.832421
 H         0.803436        -2.891254         0.333902
 H        -0.976256        -3.234748         0.510992
 H        -0.248441        -2.805247        -1.139641
