19
Iteration:   120
 C        -2.794432        -1.629531         1.636130
 C        -1.741951        -0.543665         1.178398
 C        -2.032762         0.290764        -0.114090
 C        -0.720317         1.260222        -0.178592
 C         0.219175         0.067398         0.147237
 O         1.465739        -0.033098         0.225214
 C        -0.700657        -1.184932         0.152649
 C        -0.075302        -2.541284         0.053919
 O        -1.708518        -0.813123        -0.979487
 H        -2.552937        -2.313865         2.449592
 H        -3.721191        -1.125337         1.981259
 H        -3.137998        -2.243961         0.788564
 H        -1.263740         0.014333         1.976217
 H        -3.024566         0.704275        -0.253598
 H        -0.414332         1.578793        -1.245495
 H        -0.594125         2.054732         0.496595
 H         0.551571        -2.838956         0.925798
 H        -0.945969        -3.267142         0.132799
 H         0.368667        -2.689341        -0.962147
