19
Iteration:    26charge 0 multiplicity 1
 C        -2.857304        -1.564068         1.417332
 C        -1.686983        -0.514713         1.229790
 C        -1.960873         0.311787        -0.010654
 C        -0.711591         1.152889        -0.192705
 C         0.262945         0.013189         0.064786
 O         1.510914         0.186112         0.197062
 C        -0.661353        -1.199892         0.227184
 C        -0.160285        -2.624902        -0.000617
 O        -1.768256        -0.946652        -0.784502
 H        -2.547033        -2.552826         1.777894
 H        -3.725628        -1.090834         1.914356
 H        -3.154688        -1.779465         0.375166
 H        -1.337013         0.088876         2.129075
 H        -2.937543         0.822628        -0.127292
 H        -0.689254         1.645174        -1.131724
 H        -0.706233         2.131499         0.594927
 H         0.735048        -2.931760         0.484127
 H        -0.838618        -3.403243         0.342863
 H        -0.146182        -2.692511        -1.043364
