19
Iteration:  3625
 C        -2.784968        -1.671035         1.653850
 C        -1.669615        -0.598471         1.137251
 C        -2.036339         0.399706        -0.057131
 C        -0.655643         1.233214        -0.159115
 C         0.255359        -0.007120         0.037744
 O         1.417111        -0.047999         0.223994
 C        -0.719981        -1.151278         0.107267
 C        -0.238097        -2.580183         0.070099
 O        -1.654131        -0.715416        -0.938013
 H        -3.362163        -2.017498         0.809558
 H        -2.319465        -2.369399         2.317538
 H        -3.457255        -0.969836         2.164158
 H        -1.196438        -0.318609         2.155984
 H        -2.897539         0.929039        -0.414433
 H        -0.783325         1.303294        -1.299542
 H        -0.634509         2.125722         0.529748
 H         0.169813        -2.911278         1.057857
 H        -0.974826        -3.323872        -0.095100
 H         0.665870        -2.766659        -0.554125
