19
Iteration:  4664
 C        -2.867845        -1.598179         1.476667
 C        -1.783980        -0.634076         1.178630
 C        -1.990174         0.375423        -0.062824
 C        -0.698767         1.208041         0.056658
 C         0.291664         0.042836         0.019385
 O         1.452863        -0.091734        -0.046726
 C        -0.723529        -1.156084         0.195299
 C        -0.205476        -2.536711         0.206309
 O        -1.562143        -0.758670        -0.906703
 H        -3.192806        -1.883062         0.396636
 H        -2.464191        -2.516472         2.017942
 H        -3.768015        -1.209477         2.044015
 H        -1.367827        -0.197502         2.164852
 H        -2.921543         0.895790        -0.347420
 H        -0.445292         1.980793        -0.704299
 H        -0.716627         1.816869         0.997635
 H         0.375468        -2.857477         1.070219
 H        -1.069380        -3.219169         0.220009
 H         0.287805        -2.659179        -0.726090
