19
Iteration:  4304charge 0 multiplicity 1
 C        -2.947098        -1.570647         1.569038
 C        -1.737907        -0.632731         1.201497
 C        -1.982895         0.401323         0.034761
 C        -0.654837         1.162904        -0.063910
 C         0.245392        -0.033374        -0.028246
 O         1.410279        -0.083917         0.085771
 C        -0.771711        -1.154826         0.131470
 C        -0.056390        -2.507039         0.084936
 O        -1.606347        -0.758796        -0.909676
 H        -3.597119        -1.588123         0.722398
 H        -2.772547        -2.476075         2.102696
 H        -3.552939        -1.046972         2.243174
 H        -1.281594        -0.323979         2.156728
 H        -2.964746         0.823046        -0.228669
 H        -0.703864         1.696623        -0.996060
 H        -0.379059         1.959813         0.669261
 H         0.598680        -2.615547         0.965103
 H        -0.766951        -3.266339        -0.130073
 H         0.649498        -2.708724        -0.751895
