19
Iteration:  1837
 C        -2.834118        -1.579168         1.476412
 C        -1.704712        -0.609964         1.192622
 C        -2.014494         0.409767        -0.047192
 C        -0.697247         1.186563        -0.034378
 C         0.221822        -0.015091         0.104562
 O         1.444824        -0.047897        -0.041069
 C        -0.754341        -1.203582         0.178813
 C        -0.046400        -2.526690         0.160477
 O        -1.713212        -0.770455        -0.850239
 H        -2.613422        -2.658022         1.615718
 H        -3.330195        -1.340817         2.469775
 H        -3.686776        -1.413604         0.760701
 H        -1.225270        -0.219125         2.131624
 H        -2.877858         0.864522        -0.406850
 H        -0.556721         1.770188        -0.957257
 H        -0.570858         1.920546         0.747438
 H         0.980899        -2.654997         0.592048
 H        -0.733039        -3.298887         0.621281
 H         0.085444        -2.857800        -0.964616
