19
Iteration:  2039charge 0 multiplicity 1
 C        -2.796306        -1.624940         1.669850
 C        -1.616773        -0.676858         1.252891
 C        -1.933883         0.366753         0.067436
 C        -0.743606         1.185682        -0.054674
 C         0.211165         0.046070         0.055788
 O         1.433614         0.033412         0.073459
 C        -0.721494        -1.141887         0.051732
 C        -0.317013        -2.617831        -0.073214
 O        -1.607785        -0.714627        -0.950042
 H        -3.768637        -1.094231         1.800534
 H        -2.976627        -2.431498         0.998485
 H        -2.405061        -2.015492         2.608377
 H        -1.153161        -0.204130         2.171034
 H        -2.992636         0.847554        -0.043799
 H        -0.497870         1.546963        -1.093519
 H        -0.511701         1.900622         0.722868
 H        -0.138133        -2.969044         0.978402
 H        -1.110837        -3.309697        -0.461472
 H         0.584950        -2.848181        -0.571848
