19
Iteration:   794
 C        -3.053322        -1.584930         1.680432
 C        -1.795474        -0.788068         1.191390
 C        -1.941649         0.284766        -0.042314
 C        -0.681387         1.231172         0.041902
 C         0.266759         0.066457         0.008772
 O         1.494878         0.087674        -0.060483
 C        -0.694447        -1.171340         0.124573
 C        -0.162682        -2.536791         0.186287
 O        -1.517062        -0.788743        -1.011896
 H        -2.773256        -2.012288         2.628703
 H        -4.013253        -1.013791         1.728528
 H        -3.338477        -2.411453         0.968077
 H        -1.508404        -0.217531         2.076931
 H        -2.848942         0.770667        -0.362222
 H        -0.620219         1.766560        -0.889657
 H        -0.297083         1.959299         0.770216
 H         0.222052        -2.756725         1.214154
 H        -1.041096        -3.112447         0.021662
 H         0.555847        -2.808623        -0.575621
