19
Iteration:   693charge 0 multiplicity 1
 C        -2.862936        -1.502327         1.472912
 C        -1.621163        -0.605755         1.238601
 C        -1.950394         0.343458        -0.007014
 C        -0.733776         1.230158        -0.269660
 C         0.253727         0.027242         0.009493
 O         1.414051         0.172003         0.307359
 C        -0.613868        -1.252901         0.140157
 C        -0.180114        -2.714061         0.054445
 O        -1.705739        -0.873117        -0.863518
 H        -2.655423        -2.626777         1.501115
 H        -3.344180        -1.149952         2.434689
 H        -3.483313        -1.404316         0.557240
 H        -1.086748        -0.414555         2.210560
 H        -3.041271         0.741438        -0.211556
 H        -0.750002         1.525954        -1.246290
 H        -0.650744         2.062398         0.532895
 H         0.736219        -2.658091         0.619309
 H        -1.049702        -3.181946         0.555372
 H        -0.274210        -3.022249        -0.987747
