19
Iteration:  4519
 C        -2.819278        -1.578963         1.646203
 C        -1.724786        -0.653696         1.145391
 C        -1.956115         0.333432         0.013748
 C        -0.725405         1.213978        -0.052292
 C         0.286306        -0.025820         0.030526
 O         1.502777         0.014424         0.261074
 C        -0.667522        -1.169102        -0.004592
 C        -0.306419        -2.578011         0.073954
 O        -1.667874        -0.745181        -1.026762
 H        -3.194894        -2.219501         0.825685
 H        -2.439651        -2.292393         2.385880
 H        -3.610868        -0.863501         1.963946
 H        -1.281605        -0.069246         2.019871
 H        -2.953880         0.748072        -0.134250
 H        -0.579920         1.544357        -1.142892
 H        -0.655572         2.044835         0.634361
 H         0.656260        -2.727374         0.571836
 H        -0.984939        -3.193894         0.609605
 H        -0.124565        -2.819651        -0.992610
