19
Iteration:  4861charge 0 multiplicity 1
 C        -2.894226        -1.515821         1.550089
 C        -1.630774        -0.678256         1.157676
 C        -1.960733         0.339748         0.007323
 C        -0.717175         1.185389        -0.176195
 C         0.250701         0.026061         0.165284
 O         1.480091         0.009238         0.203797
 C        -0.704135        -1.173739         0.075931
 C        -0.226319        -2.632731         0.026566
 O        -1.682972        -0.738930        -0.908860
 H        -3.152303        -2.250954         0.801167
 H        -2.561107        -2.054303         2.367013
 H        -3.726417        -0.964176         1.867762
 H        -1.150124        -0.307202         2.023833
 H        -2.958846         0.857521        -0.012973
 H        -0.700987         1.693330        -1.186733
 H        -0.396623         2.130812         0.351470
 H         0.323553        -2.832043         0.982936
 H        -1.138107        -3.355960        -0.185537
 H         0.526957        -2.887453        -0.678547
