19
Iteration:  2325
 C        -2.742443        -1.585836         1.588110
 C        -1.739079        -0.575900         1.184831
 C        -1.975064         0.283591        -0.016930
 C        -0.739001         1.229140        -0.074769
 C         0.218515         0.060387         0.063841
 O         1.478461        -0.148891         0.154157
 C        -0.739033        -1.123875         0.063798
 C        -0.195631        -2.567190         0.158856
 O        -1.724041        -0.697517        -1.025965
 H        -2.285816        -2.524920         1.263393
 H        -2.757512        -1.758656         2.706763
 H        -3.676680        -1.495043         1.038937
 H        -1.095101        -0.070276         1.879993
 H        -3.017128         0.726585        -0.202913
 H        -0.684790         1.701371        -1.072317
 H        -0.553569         1.801627         0.858092
 H         0.388987        -2.605188         1.126985
 H        -0.920035        -3.367774         0.080083
 H         0.691865        -2.547243        -0.621062
