19
Iteration:  2854
 C        -2.902829        -1.471495         1.555670
 C        -1.767952        -0.536879         1.149808
 C        -2.103377         0.353623        -0.062340
 C        -0.684825         1.226022        -0.045012
 C         0.246156         0.009036         0.144921
 O         1.504386        -0.127585         0.106257
 C        -0.688423        -1.169907         0.199872
 C        -0.081444        -2.540497         0.127617
 O        -1.653026        -0.868378        -1.030205
 H        -3.483608        -1.714467         0.658509
 H        -2.347286        -2.412534         1.706016
 H        -3.508448        -1.271524         2.485972
 H        -1.283300        -0.058119         2.034360
 H        -3.117172         0.833359        -0.230367
 H        -0.627024         1.857387        -0.943336
 H        -0.717771         1.792439         0.870186
 H         0.838186        -2.654675         0.714539
 H        -0.740002        -3.348094         0.237073
 H         0.383432        -2.571842        -0.872322
