19
Iteration:     9
 C        -2.834349        -1.539356         1.459737
 C        -1.754276        -0.604146         1.208008
 C        -2.011714         0.320622        -0.013603
 C        -0.783654         1.185144        -0.124658
 C         0.247280         0.058751         0.074304
 O         1.501270         0.079555         0.124941
 C        -0.726824        -1.177919         0.151557
 C        -0.151430        -2.580883         0.069247
 O        -1.653030        -0.865429        -0.834366
 H        -2.277619        -2.294435         2.065827
 H        -3.587728        -0.942261         2.008804
 H        -3.212052        -2.048970         0.568304
 H        -1.406333        -0.359105         2.195469
 H        -2.990358         0.703462        -0.307403
 H        -0.316290         1.671338        -1.094958
 H        -0.531673         1.827462         0.585785
 H         0.678819        -2.729232         0.876723
 H        -0.815387        -3.449803         0.296117
 H         0.289717        -2.786506        -1.008571
