19
Iteration:  1573charge 0 multiplicity 1
 C        -2.903557        -1.669415         1.589230
 C        -1.772324        -0.606765         1.164641
 C        -1.996671         0.387031         0.026966
 C        -0.641878         1.200482        -0.003189
 C         0.233269        -0.026880        -0.035785
 O         1.486961        -0.039918         0.027037
 C        -0.668684        -1.174717         0.233879
 C        -0.141408        -2.544131         0.100529
 O        -1.715201        -0.709261        -0.980069
 H        -2.579614        -2.001099         2.622021
 H        -3.857494        -1.103373         1.683905
 H        -2.905424        -2.562517         0.924456
 H        -1.327714        -0.160505         2.168682
 H        -2.919618         0.915833        -0.066840
 H        -0.546378         1.595477        -1.081343
 H        -0.535230         2.050789         0.650097
 H         0.941113        -2.529115         0.517600
 H        -0.802846        -3.325777         0.614662
 H         0.104116        -2.719021        -0.979280
