19
Iteration:  1731charge 0 multiplicity 1
 C        -2.825252        -1.548609         1.640745
 C        -1.750181        -0.645180         1.281402
 C        -1.933688         0.307463         0.110078
 C        -0.718078         1.208714        -0.186208
 C         0.341892         0.083834         0.011486
 O         1.509558         0.123971         0.135952
 C        -0.687101        -1.231370         0.072359
 C        -0.330157        -2.666632         0.013913
 O        -1.676077        -0.801984        -0.951175
 H        -2.619353        -2.172508         2.470332
 H        -3.802495        -1.079052         1.762094
 H        -2.972467        -2.288491         0.844194
 H        -1.255944        -0.190285         2.157779
 H        -2.961409         0.774663         0.034750
 H        -0.647533         1.467286        -1.214071
 H        -0.460388         2.121574         0.433414
 H        -0.137249        -2.976229         1.012443
 H        -0.995381        -3.315714        -0.464361
 H         0.578209        -2.626404        -0.591291
