19
Iteration:  4736
 C        -2.897374        -1.432406         1.423690
 C        -1.679621        -0.645137         1.182630
 C        -2.006768         0.325234         0.039278
 C        -0.750647         1.140086         0.001341
 C         0.327883        -0.021510         0.088532
 O         1.506427         0.035139         0.105251
 C        -0.664911        -1.205863         0.130714
 C        -0.139491        -2.605920         0.055910
 O        -1.750977        -0.789299        -0.904067
 H        -3.182572        -2.047837         0.613389
 H        -2.984275        -1.921288         2.375105
 H        -3.718038        -0.709108         1.518983
 H        -1.132204        -0.430647         2.060849
 H        -2.912230         0.749256        -0.306449
 H        -0.724481         1.757725        -0.896909
 H        -0.524973         1.894484         0.751419
 H         0.666574        -2.690978         0.845014
 H        -0.699925        -3.334173         0.537128
 H         0.084764        -2.895168        -1.055329
