19
Iteration:  2594
 C        -2.750191        -1.627755         1.536315
 C        -1.770577        -0.506663         1.171715
 C        -2.041108         0.461253        -0.065029
 C        -0.675833         1.121023         0.005337
 C         0.278915        -0.046917         0.043501
 O         1.448868        -0.093740         0.147345
 C        -0.778534        -1.176404         0.078600
 C        -0.140124        -2.530070         0.168422
 O        -1.706048        -0.766134        -0.987159
 H        -2.705780        -2.439324         0.819630
 H        -2.606304        -2.119496         2.505786
 H        -3.798946        -1.284729         1.535239
 H        -1.310938        -0.040880         2.079903
 H        -2.865628         1.002936        -0.464464
 H        -0.570656         1.877731        -0.907605
 H        -0.705054         1.771697         0.910485
 H         0.809651        -2.302632         0.778827
 H        -0.699635        -3.391159         0.486829
 H         0.319116        -2.691910        -0.850431
