19
Iteration:  4394charge 0 multiplicity 1
 C        -2.881392        -1.640142         1.527691
 C        -1.784581        -0.551707         1.170829
 C        -1.992387         0.330305         0.010009
 C        -0.639297         1.209254        -0.006558
 C         0.302274         0.024588         0.172406
 O         1.515635        -0.022566        -0.057397
 C        -0.721951        -1.153341         0.134099
 C        -0.266293        -2.591689         0.121048
 O        -1.615021        -0.767844        -0.925181
 H        -3.066031        -2.309688         0.735948
 H        -2.434126        -2.025641         2.378091
 H        -3.737434        -1.222873         1.867273
 H        -1.389527         0.048682         2.017774
 H        -2.960628         0.803954        -0.163328
 H        -0.586571         1.678080        -0.936533
 H        -0.754079         1.838356         0.809578
 H         0.142459        -2.838633         1.062684
 H        -1.086329        -3.126928        -0.319329
 H         0.498582        -2.764941        -0.563771
