19
Iteration:   530charge 0 multiplicity 1
 C        -2.997521        -1.663339         1.477129
 C        -1.836320        -0.583125         1.245940
 C        -1.967323         0.374963        -0.043377
 C        -0.684591         1.238395        -0.097979
 C         0.267645         0.102222         0.085887
 O         1.479047         0.008683        -0.109381
 C        -0.651289        -1.169601         0.293445
 C        -0.097283        -2.588160         0.231900
 O        -1.567071        -0.835125        -0.903398
 H        -2.733136        -2.500955         2.117771
 H        -3.850569        -1.171402         1.923168
 H        -3.285363        -2.117220         0.537750
 H        -1.605772        -0.105232         2.203093
 H        -3.029626         0.720522        -0.379825
 H        -0.587677         1.694147        -1.042721
 H        -0.551378         2.108286         0.695267
 H         0.467211        -2.889417         1.111707
 H        -1.006315        -3.257487         0.149764
 H         0.426647        -2.830913        -0.703935
