19
Iteration:  4458
 C        -3.008277        -1.538787         1.534420
 C        -1.704337        -0.725875         1.211661
 C        -2.031928         0.326452         0.064385
 C        -0.657091         1.175442        -0.175737
 C         0.337405        -0.028321         0.103299
 O         1.496191        -0.001382         0.111194
 C        -0.692300        -1.173392         0.125102
 C        -0.130379        -2.524138         0.077323
 O        -1.672680        -0.714364        -0.906971
 H        -3.607119        -1.647240         0.620699
 H        -2.918393        -2.525082         1.971702
 H        -3.625515        -0.977692         2.245701
 H        -1.324531        -0.334848         2.114877
 H        -2.972917         0.805017        -0.144599
 H        -0.434104         1.383252        -1.184513
 H        -0.569410         2.131186         0.601652
 H         0.920842        -2.462195         0.502541
 H        -0.753962        -3.365530         0.432175
 H        -0.017232        -2.730743        -0.984024
