19
Iteration:  4856
 C        -2.853621        -1.539232         1.563712
 C        -1.641562        -0.669974         1.119789
 C        -2.002574         0.366200         0.018064
 C        -0.716117         1.218201        -0.153880
 C         0.281711         0.008992         0.133736
 O         1.474475         0.006471         0.236379
 C        -0.678789        -1.161201         0.022819
 C        -0.240788        -2.639606         0.046945
 O        -1.693728        -0.753010        -0.921288
 H        -3.291923        -2.150552         0.725363
 H        -2.733774        -2.216998         2.548030
 H        -3.719207        -0.914587         2.033835
 H        -0.882668        -0.227265         1.917800
 H        -2.978753         0.784597        -0.072048
 H        -0.618231         1.588509        -1.184205
 H        -0.478346         2.118089         0.408561
 H         0.126507        -2.840611         1.113770
 H        -1.002596        -3.350891        -0.048952
 H         0.536404        -2.883323        -0.770466
