19
Iteration:  3249charge 0 multiplicity 1
 C        -2.881589        -1.508697         1.596501
 C        -1.832651        -0.587740         1.157439
 C        -1.976964         0.308853        -0.079324
 C        -0.638239         1.181038         0.018024
 C         0.215533         0.043627         0.151247
 O         1.442769        -0.051905         0.048166
 C        -0.699988        -1.178333         0.173344
 C        -0.101919        -2.536353         0.094629
 O        -1.647800        -0.851422        -1.028985
 H        -3.127291        -2.194157         0.817833
 H        -2.590444        -1.943016         2.556979
 H        -3.757082        -0.911093         1.730618
 H        -1.450677        -0.316562         2.132497
 H        -2.909433         0.877155        -0.454338
 H        -0.440770         1.968005        -0.750198
 H        -0.646333         1.820884         0.962027
 H         0.944630        -2.502976         0.354603
 H        -0.524839        -3.389473         0.683951
 H        -0.002540        -2.669570        -0.963037
