19
Iteration:   263charge 0 multiplicity 1
 C        -2.898195        -1.590486         1.450144
 C        -1.716119        -0.621194         1.223948
 C        -1.973291         0.356420        -0.048895
 C        -0.725188         1.212665        -0.081039
 C         0.211678         0.026355         0.088607
 O         1.410859         0.062661         0.026571
 C        -0.595088        -1.154869         0.195367
 C        -0.083273        -2.586383         0.175909
 O        -1.683875        -0.832471        -0.928695
 H        -2.825163        -2.202372         2.344064
 H        -3.861434        -1.061623         1.506401
 H        -3.012209        -2.283309         0.632596
 H        -1.306258        -0.150939         2.081465
 H        -2.992156         0.693694        -0.274053
 H        -0.453848         1.876523        -0.978591
 H        -0.572923         1.591968         0.901472
 H         0.554459        -2.710615         1.061718
 H        -0.901543        -3.231515         0.584239
 H         0.320785        -2.950039        -0.752743
