19
Iteration:  4974charge 0 multiplicity 1
 C        -2.933121        -1.611349         1.378605
 C        -1.793526        -0.614284         1.179992
 C        -1.991037         0.345732        -0.047461
 C        -0.612621         1.192974         0.014886
 C         0.301932         0.025992         0.174187
 O         1.513635        -0.021670        -0.139824
 C        -0.722829        -1.158772         0.207348
 C        -0.186924        -2.555714         0.230047
 O        -1.637272        -0.745324        -0.904197
 H        -3.672859        -1.768638         0.603118
 H        -2.635311        -2.694193         1.691179
 H        -3.405221        -1.462573         2.386290
 H        -1.469856        -0.171304         2.162455
 H        -2.918069         0.939915        -0.037490
 H        -0.479504         1.818167        -0.902048
 H        -0.711742         1.868442         0.986101
 H         0.752358        -2.557415         0.794417
 H        -0.864377        -3.126488         0.882002
 H        -0.126372        -3.105185        -0.798606
