19
Iteration:  4696
 C        -2.958669        -1.652135         1.538877
 C        -1.903592        -0.659201         1.156333
 C        -1.930140         0.405197        -0.033589
 C        -0.665631         1.206435        -0.025700
 C         0.286561         0.027317         0.115908
 O         1.487282        -0.070460        -0.065864
 C        -0.736878        -1.176346         0.244957
 C        -0.167141        -2.582344         0.134214
 O        -1.543416        -0.664339        -0.886440
 H        -2.978774        -2.400165         0.714474
 H        -2.603532        -2.134154         2.447719
 H        -3.982779        -1.253838         1.678330
 H        -1.448209        -0.284969         2.143027
 H        -2.835436         0.971945        -0.253748
 H        -0.436097         1.632903        -1.078886
 H        -0.645080         2.125130         0.657860
 H         0.790668        -2.683003         0.689708
 H        -0.925481        -3.356941         0.289975
 H         0.099147        -2.724021        -0.898211
