19
Iteration:  1660
 C        -2.876249        -1.542264         1.593213
 C        -1.746293        -0.603930         1.167563
 C        -2.039076         0.301135        -0.004864
 C        -0.702654         1.131162        -0.109899
 C         0.236787         0.081047         0.080994
 O         1.472946        -0.077866         0.061770
 C        -0.706060        -1.132216         0.213043
 C        -0.116908        -2.564153         0.026058
 O        -1.631999        -0.734244        -0.936534
 H        -2.463649        -2.589539         1.686865
 H        -3.243510        -1.241304         2.591054
 H        -3.799815        -1.770648         1.054124
 H        -1.312552        -0.102185         2.114758
 H        -2.968061         0.839442        -0.097135
 H        -0.532016         1.689179        -1.074113
 H        -0.651515         1.921021         0.601675
 H         0.784067        -2.625538         0.728188
 H        -0.801274        -3.338735         0.537002
 H         0.166424        -2.875356        -1.018135
