19
Iteration:  3059charge 0 multiplicity 1
 C        -2.840626        -1.567657         1.512854
 C        -1.707042        -0.659546         1.228744
 C        -1.965135         0.322837         0.067305
 C        -0.700397         1.180498        -0.340449
 C         0.256873         0.042734         0.020146
 O         1.480192         0.087273         0.253626
 C        -0.649779        -1.228014         0.143909
 C        -0.286483        -2.660836         0.130037
 O        -1.637373        -0.708079        -0.914277
 H        -3.108883        -2.110588         0.625351
 H        -2.328000        -2.286408         2.107454
 H        -3.632518        -1.213866         2.172292
 H        -1.378059        -0.090566         2.115679
 H        -2.940679         0.797767        -0.197526
 H        -0.764521         1.567189        -1.285686
 H        -0.516250         2.190024         0.168701
 H        -0.272336        -3.235385         1.119921
 H        -1.250355        -2.996403        -0.239355
 H         0.650480        -2.883099        -0.435583
