19
Iteration:  3422charge 0 multiplicity 1
 C        -2.944441        -1.428809         1.544795
 C        -1.740663        -0.617898         1.173422
 C        -1.956670         0.258168        -0.002413
 C        -0.748651         1.178117        -0.051390
 C         0.305258         0.063418         0.095421
 O         1.472429        -0.042546         0.045030
 C        -0.673321        -1.234328         0.176335
 C        -0.106320        -2.541621         0.019870
 O        -1.644313        -0.817935        -0.867222
 H        -3.084693        -2.156593         0.721107
 H        -2.988859        -1.968301         2.524349
 H        -3.869433        -0.786694         1.507018
 H        -1.327469        -0.231430         2.100564
 H        -2.901755         0.864351        -0.209584
 H        -0.683143         1.791702        -0.871344
 H        -0.930984         1.898190         0.670075
 H         0.780286        -2.623482         0.698832
 H        -0.845210        -3.398259         0.292127
 H         0.212483        -2.790025        -1.023390
