19
Iteration:   561charge 0 multiplicity 1
 C        -2.941160        -1.535049         1.361256
 C        -1.677541        -0.673399         1.350444
 C        -1.924072         0.269301         0.144856
 C        -0.752181         1.120261        -0.236757
 C         0.328740         0.018773         0.002900
 O         1.525007         0.199419        -0.001640
 C        -0.688124        -1.226464         0.217853
 C        -0.243457        -2.589220         0.201088
 O        -1.632494        -0.766554        -0.885631
 H        -3.184188        -2.107131         2.300138
 H        -3.909333        -1.058668         1.123787
 H        -2.934104        -2.306081         0.554850
 H        -1.364204        -0.297305         2.337639
 H        -3.049279         0.531801         0.092953
 H        -0.870815         1.417379        -1.248461
 H        -0.476836         2.095487         0.431704
 H        -0.019583        -2.826414         1.230028
 H        -1.145215        -3.207851        -0.043863
 H         0.685643        -2.808592        -0.356025
