19
Iteration:  3310
 C        -2.916854        -1.512039         1.503980
 C        -1.709949        -0.688411         1.210822
 C        -1.908951         0.344238         0.030188
 C        -0.669206         1.183353        -0.281964
 C         0.317117        -0.003803         0.104610
 O         1.471619         0.122832         0.208504
 C        -0.700353        -1.192379         0.135049
 C        -0.228469        -2.643357         0.043825
 O        -1.731723        -0.777499        -0.852946
 H        -3.515995        -1.925320         0.652930
 H        -2.579517        -2.436487         2.020323
 H        -3.466691        -0.959182         2.333844
 H        -1.086543        -0.463053         2.106676
 H        -2.852682         0.873218        -0.191431
 H        -0.596507         1.297577        -1.354122
 H        -0.689134         2.052625         0.352656
 H         0.305805        -2.774177         1.053298
 H        -0.961012        -3.431907        -0.191686
 H         0.630187        -2.643321        -0.697450
