19
Iteration:  2564
 C        -2.944550        -1.566975         1.680461
 C        -1.697722        -0.643594         1.177005
 C        -2.071845         0.344494         0.018858
 C        -0.668244         1.199563        -0.092925
 C         0.268016         0.028756         0.070967
 O         1.497145         0.032819         0.187082
 C        -0.649952        -1.176644         0.110131
 C        -0.212968        -2.564928         0.009204
 O        -1.585172        -0.807287        -1.030099
 H        -3.166251        -2.389563         0.974432
 H        -2.650157        -1.960057         2.704983
 H        -3.807673        -0.876541         1.695424
 H        -1.292844        -0.335044         2.182918
 H        -3.045571         0.773486        -0.314720
 H        -0.676345         1.495785        -1.179452
 H        -0.570451         2.071851         0.614453
 H         0.273536        -2.929776         0.875632
 H        -1.047957        -3.265066        -0.080118
 H         0.353901        -2.679133        -0.943678
