19
Iteration:  1502charge 0 multiplicity 1
 C        -2.922759        -1.507079         1.551392
 C        -1.655359        -0.656442         1.238361
 C        -1.945550         0.291858         0.004843
 C        -0.762391         1.181321        -0.020432
 C         0.371134         0.051565         0.008339
 O         1.534740         0.174766         0.034667
 C        -0.727683        -1.191745         0.097352
 C        -0.248755        -2.697432         0.075784
 O        -1.697085        -0.835871        -0.882470
 H        -2.683717        -2.503359         1.850570
 H        -3.400283        -0.934301         2.330013
 H        -3.565963        -1.600271         0.695240
 H        -1.304119        -0.071871         2.056744
 H        -3.030152         0.640763        -0.052523
 H        -0.764972         1.532037        -1.029892
 H        -0.452185         1.915377         0.737009
 H         0.146689        -2.996068         1.014702
 H        -1.048604        -3.320650        -0.220907
 H         0.629565        -2.784138        -0.559900
