19
Iteration:  2599charge 0 multiplicity 1
 C        -2.747482        -1.614292         1.480444
 C        -1.752853        -0.518880         1.209495
 C        -2.051021         0.446491        -0.053029
 C        -0.687174         1.137465         0.012731
 C         0.247719        -0.084055         0.029703
 O         1.456276        -0.107179         0.142049
 C        -0.780041        -1.157932         0.095489
 C        -0.124063        -2.482120         0.177011
 O        -1.695051        -0.775363        -1.001936
 H        -2.741558        -2.510576         0.808767
 H        -2.606279        -2.146245         2.459857
 H        -3.820333        -1.368171         1.634568
 H        -1.284071         0.105494         2.020658
 H        -3.020957         0.931060        -0.419669
 H        -0.498819         1.774443        -0.801796
 H        -0.483375         1.826136         0.888426
 H         0.775462        -2.256498         0.685920
 H        -0.841345        -3.251459         0.567881
 H         0.303038        -2.745933        -0.786517
