19
Iteration:  1899
 C        -2.904427        -1.512742         1.518170
 C        -1.736201        -0.637011         1.222723
 C        -1.920057         0.306901         0.086714
 C        -0.740018         1.193391        -0.039997
 C         0.296897         0.104361         0.083097
 O         1.459014         0.125888        -0.029587
 C        -0.705430        -1.225502         0.205191
 C        -0.176820        -2.759180         0.144917
 O        -1.622852        -0.783433        -0.986294
 H        -2.704833        -2.603965         1.646431
 H        -3.425250        -1.172335         2.401759
 H        -3.552749        -1.438373         0.634287
 H        -1.108293        -0.280738         2.061206
 H        -2.990012         0.822455        -0.095044
 H        -0.749262         1.649787        -1.151305
 H        -0.487436         2.051944         0.604113
 H         0.851422        -2.982238         0.379432
 H        -0.938120        -3.299576         0.722369
 H        -0.408773        -2.904193        -0.874082
