19
Iteration:  4965charge 0 multiplicity 1
 C        -2.974951        -1.615869         1.467927
 C        -1.841010        -0.686861         1.152035
 C        -2.009674         0.345464         0.003903
 C        -0.634607         1.246324         0.035613
 C         0.351178         0.036450         0.133040
 O         1.511665        -0.039048        -0.138354
 C        -0.692910        -1.135629         0.172464
 C        -0.154356        -2.557404         0.306975
 O        -1.659550        -0.721815        -0.996697
 H        -3.636392        -1.634333         0.544880
 H        -2.337934        -2.592509         1.555853
 H        -3.602855        -1.172440         2.325266
 H        -1.364015        -0.488228         2.202303
 H        -2.973481         0.837680        -0.201957
 H        -0.302330         1.821729        -0.822685
 H        -0.584333         1.671355         1.056022
 H         0.830912        -2.698974         0.786395
 H        -0.800700        -3.116499         0.853971
 H        -0.158017        -3.078454        -0.688668
