19
Iteration:  3513
 C        -2.819219        -1.597583         1.541743
 C        -1.834022        -0.659914         1.174555
 C        -2.012339         0.388491        -0.090868
 C        -0.625179         1.267181         0.003439
 C         0.274368        -0.043559         0.054515
 O         1.450347        -0.059894         0.037634
 C        -0.760799        -1.124223         0.162066
 C        -0.144100        -2.583997         0.192081
 O        -1.634056        -0.768242        -0.958334
 H        -3.529562        -1.722584         0.681522
 H        -2.467499        -2.545579         1.949490
 H        -3.444684        -1.240138         2.329766
 H        -1.283028        -0.057555         1.951037
 H        -2.870276         0.902590        -0.479713
 H        -0.374722         1.982734        -0.827677
 H        -0.842655         1.968470         0.775222
 H         0.948139        -2.554887         0.489646
 H        -0.675916        -3.246601         0.962413
 H        -0.237822        -3.035190        -0.829364
