19
Iteration:  2054
 C        -2.791213        -1.693328         1.729624
 C        -1.750742        -0.697640         1.153361
 C        -2.047224         0.361798         0.013839
 C        -0.702317         1.263409        -0.030643
 C         0.311712        -0.023121         0.068316
 O         1.509224        -0.093226         0.019305
 C        -0.706976        -1.142988         0.127565
 C        -0.205913        -2.534546        -0.010443
 O        -1.678989        -0.633897        -0.934607
 H        -3.739289        -1.154621         1.714159
 H        -2.923274        -2.647932         1.162352
 H        -2.793145        -1.935201         2.797615
 H        -1.209504        -0.230479         2.009704
 H        -3.046194         0.864285        -0.300216
 H        -0.722832         1.740544        -1.065823
 H        -0.620144         2.088977         0.739898
 H         0.133775        -2.911102         0.920409
 H        -1.013469        -3.053592        -0.440111
 H         0.593713        -2.568722        -0.789189
