19
Iteration:  3735charge 0 multiplicity 1
 C        -2.978906        -1.532226         1.423378
 C        -1.743335        -0.552539         1.230427
 C        -1.952054         0.361881         0.053581
 C        -0.679352         1.209322        -0.007124
 C         0.261527        -0.014315         0.032079
 O         1.482396         0.007063        -0.032203
 C        -0.695472        -1.225452         0.214249
 C        -0.095246        -2.583318         0.085125
 O        -1.681562        -0.847961        -0.828573
 H        -3.003429        -2.300686         0.659210
 H        -3.066220        -2.103839         2.361525
 H        -3.950768        -0.958982         1.312247
 H        -1.165089        -0.378874         2.170985
 H        -2.951403         0.746207        -0.202919
 H        -0.516255         1.818218        -0.978759
 H        -0.405317         1.912350         0.815112
 H         0.875655        -2.516222         0.730990
 H        -0.916180        -3.327605         0.281363
 H         0.108147        -2.438772        -1.029268
