19
Iteration:  3859charge 0 multiplicity 1
 C        -2.922276        -1.476316         1.559598
 C        -1.646447        -0.684299         1.249917
 C        -1.962096         0.296711         0.059816
 C        -0.708156         1.122997        -0.212786
 C         0.251370         0.032628         0.095881
 O         1.495963         0.048481         0.197527
 C        -0.735587        -1.197511         0.079353
 C        -0.146550        -2.629032        -0.023559
 O        -1.693951        -0.734409        -0.899792
 H        -3.781217        -1.557624         0.899461
 H        -2.685036        -2.472234         1.893097
 H        -3.424015        -1.111363         2.414614
 H        -1.315470        -0.128772         2.146089
 H        -2.910449         0.869211        -0.093696
 H        -0.833566         1.417708        -1.268133
 H        -0.457545         2.083732         0.396817
 H         0.442850        -2.723898         0.860724
 H        -0.911434        -3.374986        -0.254849
 H         0.710266        -2.648398        -0.726588
