19
Iteration:  4124
 C        -2.971080        -1.612040         1.603689
 C        -1.698754        -0.641133         1.184816
 C        -1.933498         0.395454         0.106150
 C        -0.654922         1.206763        -0.117974
 C         0.215659        -0.034505        -0.047835
 O         1.450239         0.079217         0.104829
 C        -0.697676        -1.244832         0.160591
 C        -0.142354        -2.649753         0.055129
 O        -1.632891        -0.706589        -0.951347
 H        -3.482520        -1.890705         0.719550
 H        -2.720363        -2.390120         2.349457
 H        -3.603728        -0.956687         2.154772
 H        -1.293149        -0.070194         2.157474
 H        -2.933514         0.729415        -0.006750
 H        -0.708728         1.535675        -1.242804
 H        -0.257256         2.005859         0.560920
 H         0.150882        -2.944184         1.083209
 H        -0.997826        -3.356518        -0.115973
 H         0.590661        -2.699740        -0.727230
