19
Iteration:  4305charge 0 multiplicity 1
 C        -2.941210        -1.559666         1.568555
 C        -1.734720        -0.631857         1.202502
 C        -1.991425         0.404060         0.033030
 C        -0.644740         1.168708        -0.061030
 C         0.250112        -0.038775        -0.025721
 O         1.405625        -0.077524         0.083507
 C        -0.769731        -1.160347         0.136769
 C        -0.056042        -2.509653         0.080433
 O        -1.611652        -0.765698        -0.915658
 H        -3.594703        -1.592131         0.702400
 H        -2.766145        -2.499531         2.084695
 H        -3.574824        -1.066690         2.245002
 H        -1.285948        -0.329139         2.175798
 H        -2.968467         0.814345        -0.225072
 H        -0.707974         1.717180        -0.961808
 H        -0.383161         1.942692         0.667956
 H         0.568664        -2.630758         0.980636
 H        -0.766278        -3.291608        -0.111973
 H         0.655468        -2.684310        -0.733587
