19
Iteration:  4786
 C        -2.860617        -1.615024         1.676259
 C        -1.778545        -0.615436         1.138627
 C        -2.019137         0.336091        -0.055514
 C        -0.707013         1.163378        -0.233522
 C         0.292791        -0.006436         0.095398
 O         1.529922        -0.050985         0.263896
 C        -0.711624        -1.128229         0.150605
 C        -0.221386        -2.514399         0.001564
 O        -1.613291        -0.735115        -0.949496
 H        -3.637625        -1.656801         0.836353
 H        -2.475409        -2.663031         2.011048
 H        -3.388101        -1.234938         2.587477
 H        -1.348602        -0.068368         2.091609
 H        -3.093325         0.764745        -0.096286
 H        -0.322920         1.572904        -1.172391
 H        -0.685628         2.103933         0.360849
 H         0.459917        -2.820678         0.742741
 H        -1.028913        -3.352709         0.040474
 H         0.153653        -2.545830        -0.984140
