19
Iteration:   216
 C        -2.972775        -1.683869         1.718667
 C        -1.895487        -0.682432         1.162782
 C        -1.932960         0.315663        -0.187416
 C        -0.744093         1.238686         0.010789
 C         0.198442         0.071071         0.105418
 O         1.383505        -0.080227        -0.070635
 C        -0.654039        -1.128998         0.185066
 C        -0.023188        -2.523400         0.197427
 O        -1.438485        -0.676889        -0.998793
 H        -2.553084        -2.483697         2.377720
 H        -3.721400        -1.137346         2.338542
 H        -3.610963        -2.226659         0.980848
 H        -1.495682        -0.025832         1.962159
 H        -2.866257         0.673002        -0.571925
 H        -0.557868         1.780267        -1.038069
 H        -0.904811         1.993495         0.787406
 H         0.347200        -2.787032         1.174133
 H        -0.839777        -3.264638         0.192624
 H         0.606356        -2.724847        -0.689667
