19
Iteration:  3562charge 0 multiplicity 1
 C        -2.959598        -1.476793         1.559708
 C        -1.697537        -0.591375         1.234782
 C        -1.904511         0.290686         0.010730
 C        -0.727607         1.191428        -0.111235
 C         0.228622         0.031091         0.031960
 O         1.468286         0.016663         0.170306
 C        -0.682775        -1.197539         0.184603
 C        -0.151422        -2.650797        -0.045218
 O        -1.643149        -0.816985        -0.905202
 H        -3.331960        -2.209142         0.862396
 H        -2.888475        -1.911937         2.558015
 H        -3.824706        -0.787628         1.749982
 H        -0.988003        -0.233018         1.992106
 H        -2.925937         0.734692        -0.154904
 H        -0.708611         1.672899        -1.134172
 H        -0.556286         2.139154         0.569810
 H         0.760458        -2.679287         0.488245
 H        -0.801177        -3.445893         0.275427
 H         0.030926        -2.677881        -1.101919
