19
Iteration:  2733
 C        -2.860311        -1.666100         1.610400
 C        -1.834204        -0.609629         1.157400
 C        -1.938815         0.394724        -0.050841
 C        -0.689531         1.244642        -0.096071
 C         0.297818        -0.003042         0.024634
 O         1.464903        -0.110352         0.169776
 C        -0.754460        -1.154732         0.116261
 C        -0.144017        -2.538365         0.152305
 O        -1.667958        -0.716330        -1.008597
 H        -3.269098        -2.213222         0.737092
 H        -2.324420        -2.322892         2.290343
 H        -3.622735        -1.108505         2.179208
 H        -1.304741        -0.183914         2.024223
 H        -2.828841         0.932758        -0.327137
 H        -0.712365         1.469607        -1.089538
 H        -0.665173         2.152190         0.476558
 H         0.193230        -2.557764         1.245146
 H        -0.740074        -3.394909        -0.046624
 H         0.829835        -2.596589        -0.315644
