19
Iteration:  4733charge 0 multiplicity 1
 C        -2.900860        -1.419786         1.424846
 C        -1.727928        -0.656924         1.178700
 C        -1.957604         0.294928         0.047573
 C        -0.745132         1.140341        -0.001715
 C         0.300397        -0.003494         0.049009
 O         1.522627         0.022530         0.098530
 C        -0.663516        -1.185208         0.128659
 C        -0.149508        -2.579403         0.065980
 O        -1.725031        -0.780262        -0.895595
 H        -3.175317        -2.201516         0.586771
 H        -2.983547        -2.019417         2.478501
 H        -3.850780        -0.753735         1.481237
 H        -1.050257        -0.400694         2.106871
 H        -2.956712         0.808344        -0.218181
 H        -0.737661         1.659387        -0.934581
 H        -0.617080         1.792339         0.878172
 H         0.664177        -2.677390         0.785399
 H        -0.766583        -3.381469         0.596989
 H         0.073310        -2.825502        -0.999718
