19
Iteration:   960
 C        -2.890784        -1.601628         1.597822
 C        -1.729539        -0.678326         1.270757
 C        -1.951768         0.358921        -0.004479
 C        -0.603785         1.164606        -0.198496
 C         0.257073         0.036918         0.110086
 O         1.447064         0.212129         0.174220
 C        -0.723602        -1.242896         0.108874
 C        -0.207207        -2.679560         0.010545
 O        -1.650785        -0.770842        -0.917564
 H        -2.744769        -2.258680         2.495965
 H        -3.776385        -0.953813         1.715946
 H        -3.185403        -2.121216         0.677187
 H        -1.297829        -0.319514         2.236693
 H        -2.876503         0.870225        -0.079851
 H        -0.603711         1.513140        -1.312352
 H        -0.293360         1.894383         0.421573
 H         0.787849        -2.938598         0.279513
 H        -1.042787        -3.216452         0.529085
 H        -0.281601        -2.858711        -1.079535
