19
Iteration:  3567
 C        -2.956716        -1.442826         1.537360
 C        -1.689712        -0.591625         1.222704
 C        -1.949195         0.283414         0.051873
 C        -0.679141         1.223516        -0.162670
 C         0.263442         0.008275         0.075489
 O         1.441356         0.032844         0.172395
 C        -0.678858        -1.188683         0.171773
 C        -0.155759        -2.625851        -0.054197
 O        -1.662182        -0.843661        -0.897458
 H        -3.217729        -2.331804         0.889674
 H        -2.803345        -1.914199         2.548670
 H        -3.784105        -0.759175         1.717894
 H        -1.065442        -0.278458         2.087018
 H        -2.957021         0.677716        -0.007281
 H        -0.572544         1.735882        -1.099029
 H        -0.739393         1.980265         0.549401
 H         0.824119        -2.863700         0.511668
 H        -0.881830        -3.487342         0.171139
 H         0.110547        -2.819011        -1.146217
