19
Iteration:  2958charge 0 multiplicity 1
 C        -3.019753        -1.501404         1.637182
 C        -1.895278        -0.598568         1.151738
 C        -2.056174         0.302542        -0.068964
 C        -0.682246         1.180162        -0.071179
 C         0.336250         0.049816         0.139590
 O         1.526750         0.020769         0.019333
 C        -0.730608        -1.263574         0.173487
 C        -0.081312        -2.600253         0.063423
 O        -1.531238        -0.753975        -0.939507
 H        -3.220999        -2.261672         0.856459
 H        -2.709133        -1.894286         2.635492
 H        -3.910609        -0.904617         1.802558
 H        -1.365693        -0.206746         2.048671
 H        -3.043109         0.606623        -0.289201
 H        -0.375200         1.750779        -0.908506
 H        -0.541418         1.879647         0.739636
 H         0.831063        -2.719444         0.739012
 H        -0.838848        -3.415487         0.508780
 H         0.027620        -2.964799        -0.992877
