19
Iteration:  3298charge 0 multiplicity 1
 C        -2.996510        -1.537318         1.604850
 C        -1.669965        -0.689900         1.189507
 C        -1.968236         0.347576         0.018907
 C        -0.691204         1.163069        -0.197554
 C         0.277507         0.017178         0.021670
 O         1.506814         0.066792         0.198483
 C        -0.702163        -1.230485         0.174574
 C        -0.144983        -2.541694         0.042764
 O        -1.678469        -0.793013        -0.912437
 H        -3.454996        -1.712318         0.589447
 H        -2.833900        -2.422320         2.240578
 H        -3.805999        -0.822518         1.959423
 H        -1.304121        -0.311916         2.162662
 H        -2.969434         0.691947         0.091878
 H        -0.503309         1.423649        -1.264303
 H        -0.398823         2.158621         0.199796
 H         0.512367        -2.909846         0.880550
 H        -0.945352        -3.252747        -0.046771
 H         0.427520        -2.603261        -0.914245
