19
Iteration:  4147
 C        -2.892997        -1.463668         1.557890
 C        -1.661801        -0.679171         1.221584
 C        -1.949406         0.323105        -0.014256
 C        -0.735563         1.179198        -0.096348
 C         0.253458         0.005961         0.061472
 O         1.499786        -0.101843         0.148458
 C        -0.755645        -1.190558         0.105344
 C        -0.074782        -2.497990         0.012982
 O        -1.741756        -0.776377        -0.907353
 H        -3.491690        -1.612814         0.669807
 H        -2.531147        -2.377091         2.038495
 H        -3.431489        -0.968321         2.358585
 H        -1.210017        -0.088845         2.120630
 H        -2.934625         0.703430        -0.163103
 H        -0.701232         1.754064        -1.129816
 H        -0.890612         1.957265         0.667652
 H         0.432278        -2.635548         0.978726
 H        -0.881377        -3.294329         0.020539
 H         0.540800        -2.554712        -0.877035
