19
Iteration:   393
 C        -2.782395        -1.534246         1.766867
 C        -1.709769        -0.613079         1.186309
 C        -2.036191         0.282385        -0.073365
 C        -0.732904         1.090553        -0.178620
 C         0.237150        -0.032121         0.066606
 O         1.415797         0.102003         0.321712
 C        -0.740416        -1.213707         0.037904
 C        -0.122198        -2.612862         0.031841
 O        -1.641947        -0.696632        -1.081250
 H        -2.510893        -1.982489         2.745339
 H        -3.728998        -0.945504         1.962234
 H        -3.085987        -2.329210         1.060129
 H        -1.154052         0.016869         1.909786
 H        -2.925275         0.746539        -0.207033
 H        -0.678139         1.441147        -1.317776
 H        -0.584228         2.017332         0.284662
 H         0.492803        -2.651539         0.935741
 H        -0.937036        -3.320738         0.154515
 H         0.595570        -2.917450        -0.700340
