19
Iteration:   880charge 0 multiplicity 1
 C        -2.960953        -1.658752         1.609371
 C        -1.830402        -0.656407         1.155427
 C        -2.004556         0.386109         0.043273
 C        -0.682569         1.124764        -0.108344
 C         0.310326         0.026193         0.048094
 O         1.504069        -0.033644         0.035162
 C        -0.648811        -1.209254         0.091565
 C        -0.017707        -2.508543         0.216859
 O        -1.759135        -0.658346        -1.020594
 H        -2.421377        -2.564654         1.994874
 H        -3.552414        -1.265727         2.496198
 H        -3.562928        -2.051440         0.715238
 H        -1.515873        -0.061775         2.090492
 H        -2.913746         1.051126         0.009082
 H        -0.558086         1.410209        -1.081668
 H        -0.574981         1.993996         0.636677
 H        -0.014333        -2.698371         1.327379
 H        -0.570372        -3.328757        -0.197808
 H         1.006615        -2.498919        -0.183585
