19
Iteration:  3045charge 0 multiplicity 1
 C        -2.826058        -1.652087         1.509283
 C        -1.677898        -0.601550         1.223160
 C        -1.927464         0.391433         0.033443
 C        -0.712910         1.202052        -0.282935
 C         0.301298         0.039321        -0.058504
 O         1.457096         0.089173         0.267221
 C        -0.693113        -1.146229         0.166341
 C        -0.314988        -2.658367         0.154723
 O        -1.649305        -0.775200        -0.911075
 H        -3.478299        -1.830051         0.610065
 H        -2.576832        -2.639038         2.024423
 H        -3.643496        -1.161481         2.061783
 H        -1.132810        -0.292429         2.169467
 H        -2.870847         0.839867        -0.027793
 H        -0.777080         1.187344        -1.369281
 H        -0.431104         2.021971         0.247243
 H        -0.148228        -2.953429         1.273006
 H        -1.059579        -3.300432        -0.467210
 H         0.639173        -2.820970        -0.434066
