19
Iteration:  3867charge 0 multiplicity 1
 C        -2.912097        -1.497985         1.606091
 C        -1.643785        -0.702741         1.220198
 C        -1.986854         0.418653         0.043065
 C        -0.746816         1.135274        -0.187175
 C         0.286903         0.001140         0.104706
 O         1.475333         0.028204         0.208699
 C        -0.752865        -1.268926         0.066352
 C        -0.120537        -2.565493        -0.002613
 O        -1.688782        -0.737530        -0.922352
 H        -3.550514        -1.632919         0.749143
 H        -2.663472        -2.492721         1.958981
 H        -3.384165        -1.073202         2.513419
 H        -1.246396        -0.164409         1.976051
 H        -2.969217         0.938456        -0.123843
 H        -0.690603         1.232044        -1.264801
 H        -0.449631         2.088813         0.264075
 H         0.321288        -2.859870         0.940877
 H        -0.771052        -3.467560        -0.236773
 H         0.558746        -2.496186        -0.834111
