19
Iteration:  2506charge 0 multiplicity 1
 C        -2.909956        -1.462957         1.540681
 C        -1.716012        -0.569590         1.239796
 C        -1.953469         0.267577        -0.046936
 C        -0.681469         1.152814        -0.096556
 C         0.304236        -0.027864         0.022818
 O         1.499501         0.116312         0.228212
 C        -0.698207        -1.186506         0.077199
 C        -0.170553        -2.600027        -0.016111
 O        -1.778143        -0.869041        -0.899634
 H        -3.705196        -1.516573         0.812621
 H        -2.493610        -2.420622         1.677039
 H        -3.305738        -1.258707         2.527275
 H        -1.087775        -0.232354         2.024489
 H        -2.901255         0.672254        -0.216577
 H        -0.502101         1.852325        -0.993965
 H        -0.550856         1.823467         0.751367
 H         0.216701        -2.751807         1.005051
 H        -0.869327        -3.345502        -0.275164
 H         0.785768        -2.698909        -0.493554
