19
Iteration:  2902charge 0 multiplicity 1
 C        -2.874749        -1.665345         1.387927
 C        -1.773189        -0.596208         1.216198
 C        -1.927671         0.379386         0.092403
 C        -0.721202         1.248683        -0.158686
 C         0.330224         0.001653         0.022490
 O         1.510243         0.020083         0.067880
 C        -0.729469        -1.212069         0.200901
 C        -0.208268        -2.615878         0.262049
 O        -1.648586        -0.714789        -0.945454
 H        -3.236018        -2.036388         0.395539
 H        -2.805459        -2.503824         2.142655
 H        -3.665164        -0.950758         1.706417
 H        -1.465416        -0.187772         2.226808
 H        -2.919982         0.843939        -0.014064
 H        -0.739511         1.510430        -1.260982
 H        -0.678340         2.113528         0.547653
 H         0.897899        -2.694141         0.554797
 H        -0.932522        -3.305153         0.945930
 H        -0.155806        -3.191379        -0.757181
