19
Iteration:  2013
 C        -2.783088        -1.547760         1.585826
 C        -1.562921        -0.660092         1.203347
 C        -1.994822         0.351651         0.009359
 C        -0.798276         1.177151        -0.065165
 C         0.381977         0.013579        -0.026348
 O         1.536987         0.187573         0.178109
 C        -0.680900        -1.199576         0.110676
 C        -0.352369        -2.735305        -0.048096
 O        -1.795148        -0.753888        -0.862466
 H        -3.357231        -0.899693         2.328390
 H        -3.464876        -1.850310         0.713866
 H        -2.421523        -2.430833         2.147252
 H        -1.161980        -0.188334         2.070775
 H        -2.903723         0.764371        -0.111265
 H        -0.676060         1.617993        -1.007458
 H        -0.443424         1.766176         0.782261
 H        -0.162120        -3.371392         0.848509
 H        -1.160212        -3.246499        -0.617630
 H         0.595210        -2.925907        -0.711198
