19
Iteration:  3704charge 0 multiplicity 1
 C        -3.027840        -1.508603         1.509075
 C        -1.746908        -0.651200         1.197233
 C        -1.972287         0.265543         0.074394
 C        -0.790660         1.176173        -0.119415
 C         0.360992         0.008545         0.071328
 O         1.522730         0.034366         0.004275
 C        -0.686340        -1.207773         0.201950
 C        -0.150703        -2.603279         0.071539
 O        -1.583625        -0.713193        -0.860817
 H        -3.429795        -1.865042         0.584478
 H        -2.822672        -2.307874         2.173471
 H        -3.770931        -0.876459         1.987148
 H        -1.244846        -0.436799         2.229146
 H        -3.018841         0.631959        -0.099999
 H        -0.667889         1.466168        -1.219220
 H        -0.473098         2.017298         0.571857
 H         0.595968        -2.692274         0.876282
 H        -0.989219        -3.299319         0.184942
 H         0.195514        -2.566547        -0.929659
