19
Iteration:  1958charge 0 multiplicity 1
 C        -2.803625        -1.591341         1.696765
 C        -1.778179        -0.579427         1.194070
 C        -1.983346         0.359389         0.025496
 C        -0.758005         1.226600        -0.175340
 C         0.253337        -0.054083         0.123616
 O         1.423800        -0.148148         0.111724
 C        -0.762327        -1.151387         0.061000
 C        -0.028318        -2.530801        -0.023393
 O        -1.687991        -0.675528        -0.903757
 H        -2.732072        -1.758202         2.786566
 H        -3.858828        -1.244038         1.410225
 H        -2.784356        -2.590838         1.212720
 H        -1.320302        -0.034936         2.013170
 H        -2.904367         0.710127        -0.189390
 H        -0.716696         1.666393        -1.135612
 H        -0.370958         1.914905         0.593566
 H         0.593843        -2.638874         0.906355
 H        -0.757106        -3.372365        -0.027278
 H         0.625514        -2.659588        -0.997898
