19
Iteration:  1627
 C        -3.005471        -1.556253         1.544644
 C        -1.695384        -0.693679         1.245094
 C        -1.971923         0.324973         0.014875
 C        -0.664151         1.143098        -0.123753
 C         0.307014         0.088783         0.024286
 O         1.561222         0.201083         0.023342
 C        -0.725494        -1.248367         0.208175
 C        -0.268272        -2.662983         0.025854
 O        -1.619558        -0.797679        -0.868333
 H        -2.611396        -2.411373         2.155467
 H        -3.557758        -0.996641         2.321892
 H        -3.573119        -1.772706         0.625215
 H        -1.240051        -0.166702         2.174854
 H        -2.933595         0.819021        -0.137327
 H        -0.574094         1.733240        -1.067006
 H        -0.590067         1.703236         0.784218
 H         0.814165        -2.706595         0.435118
 H        -0.947477        -3.343652         0.676323
 H        -0.334627        -3.093048        -0.996128
