19
Iteration:   371charge 0 multiplicity 1
 C        -2.744362        -1.523165         1.834206
 C        -1.763714        -0.729868         1.013610
 C        -1.983150         0.362343        -0.110194
 C        -0.752243         1.260340        -0.149839
 C         0.202027         0.052187         0.061813
 O         1.367928        -0.044042         0.335536
 C        -0.760079        -1.237217        -0.007707
 C        -0.079868        -2.581144         0.133117
 O        -1.645213        -0.767824        -1.108302
 H        -2.108602        -1.998948         2.615397
 H        -3.412784        -0.792516         2.389191
 H        -3.393861        -2.262359         1.316960
 H        -1.153352        -0.247758         1.824277
 H        -2.886627         0.705225        -0.358441
 H        -0.602092         1.999903        -1.115295
 H        -0.755646         1.978456         0.634153
 H         0.665426        -2.505991         0.913984
 H        -0.739201        -3.451657         0.239509
 H         0.618604        -2.719890        -0.677321
