19
Iteration:  2306
 C        -2.798146        -1.693341         1.654093
 C        -1.727417        -0.674284         1.159432
 C        -2.007333         0.455873        -0.015608
 C        -0.685472         1.201030        -0.154217
 C         0.251623         0.014366        -0.031349
 O         1.512137         0.023484         0.232457
 C        -0.661026        -1.222260         0.011548
 C        -0.217672        -2.600816         0.139624
 O        -1.709779        -0.692647        -0.971209
 H        -2.766760        -2.736923         1.665702
 H        -2.890917        -1.381021         2.694643
 H        -3.744407        -1.441693         1.240199
 H        -1.082623        -0.354487         2.049916
 H        -3.087494         0.952862        -0.128856
 H        -0.671227         1.617823        -1.121168
 H        -0.668430         2.063801         0.614316
 H         0.079735        -2.862578         1.132393
 H        -1.140161        -3.138527        -0.100759
 H         0.511600        -2.815403        -0.667038
