19
Iteration:  1069
 C        -2.957031        -1.499583         1.623956
 C        -1.687896        -0.706043         1.151520
 C        -1.986935         0.311918        -0.027294
 C        -0.783711         1.252097        -0.097808
 C         0.294073         0.017171         0.172965
 O         1.466650         0.137797         0.046246
 C        -0.615771        -1.249964         0.167193
 C        -0.265014        -2.671572         0.012348
 O        -1.496102        -0.775937        -0.934569
 H        -2.866592        -2.160745         2.530806
 H        -3.784646        -0.832582         1.954615
 H        -3.418549        -2.093214         0.825873
 H        -1.138175        -0.433963         2.107123
 H        -2.977485         0.638366        -0.108704
 H        -0.765657         1.856305        -1.080356
 H        -0.685480         1.865595         0.735599
 H         0.768349        -2.719306         0.148410
 H        -0.752715        -3.362139         0.732907
 H        -0.640535        -3.030598        -0.944939
