19
Iteration:  2517charge 0 multiplicity 1
 C        -2.915006        -1.458422         1.596378
 C        -1.683401        -0.581996         1.159225
 C        -1.931171         0.372676         0.001270
 C        -0.674485         1.177160        -0.090470
 C         0.295474         0.049908         0.071480
 O         1.460805         0.162261         0.216726
 C        -0.687781        -1.306255         0.032164
 C        -0.147570        -2.681783        -0.047630
 O        -1.722305        -0.932093        -0.850219
 H        -3.580991        -1.447503         0.748784
 H        -2.714427        -2.471955         1.787231
 H        -3.452195        -0.975766         2.414769
 H        -1.514825         0.005196         2.022117
 H        -2.803214         0.901515        -0.204639
 H        -0.612941         1.708153        -1.123493
 H        -0.696298         1.830083         0.770689
 H         0.014104        -3.065663         0.970174
 H        -0.934104        -3.297246        -0.397766
 H         0.638364        -2.766038        -0.789532
