19
Iteration:  4632
 C        -2.959586        -1.499131         1.476278
 C        -1.712998        -0.742025         1.175307
 C        -2.022594         0.381893         0.102816
 C        -0.663980         1.150532        -0.026394
 C         0.315412         0.020492         0.027889
 O         1.559079         0.083405         0.013293
 C        -0.729920        -1.218033         0.099675
 C        -0.163359        -2.623531         0.214510
 O        -1.680128        -0.726329        -0.940219
 H        -3.513109        -1.642195         0.490299
 H        -2.801142        -2.618962         1.634839
 H        -3.689266        -1.097120         2.241359
 H        -1.251387        -0.250578         2.073182
 H        -2.969092         0.900389        -0.159766
 H        -0.534779         1.427643        -1.030354
 H        -0.601690         1.832400         0.737380
 H         0.127926        -2.871324         1.228993
 H        -1.013029        -3.271130        -0.077280
 H         0.660418        -2.798160        -0.425338
