19
Iteration:  1494charge 0 multiplicity 1
 C        -2.934038        -1.561585         1.587026
 C        -1.729847        -0.689898         1.203285
 C        -1.937933         0.324901         0.108124
 C        -0.670184         1.182306        -0.072968
 C         0.318683         0.090414         0.015554
 O         1.583390         0.244271         0.031437
 C        -0.698254        -1.217325         0.067604
 C        -0.305488        -2.680939         0.106381
 O        -1.671998        -0.900633        -0.918199
 H        -2.838675        -2.572038         1.953412
 H        -3.420570        -0.908615         2.340891
 H        -3.714716        -1.522381         0.806599
 H        -1.218220        -0.241975         2.131223
 H        -2.943233         0.850478        -0.133813
 H        -0.819592         1.711368        -0.984472
 H        -0.382694         2.041316         0.515958
 H         0.053460        -3.205675         1.067813
 H        -1.096913        -3.310522        -0.318625
 H         0.519816        -2.751703        -0.646943
