19
Iteration:  2455
 C        -2.831699        -1.731569         1.574448
 C        -1.822157        -0.657210         1.195959
 C        -2.023572         0.410068        -0.086255
 C        -0.625190         1.231125        -0.112869
 C         0.227165         0.007381         0.092774
 O         1.477609        -0.088668         0.014824
 C        -0.787506        -1.139691         0.245192
 C        -0.157790        -2.521076         0.240851
 O        -1.609667        -0.675389        -1.001708
 H        -3.457046        -1.922640         0.673129
 H        -2.340021        -2.748170         1.856686
 H        -3.514313        -1.473647         2.433047
 H        -1.273435         0.003524         1.949883
 H        -2.968076         0.895101        -0.445863
 H        -0.553517         1.821653        -1.051284
 H        -0.537178         1.978984         0.696023
 H         0.665583        -2.538257         0.991313
 H        -0.830345        -3.374709         0.375392
 H         0.395610        -2.643248        -0.766789
