19
Iteration:  1954charge 0 multiplicity 1
 C        -2.830281        -1.591929         1.693965
 C        -1.755324        -0.583780         1.212007
 C        -1.991037         0.360575         0.019827
 C        -0.739927         1.240183        -0.109366
 C         0.257166        -0.036160         0.103845
 O         1.433352        -0.162535         0.105850
 C        -0.768207        -1.162272         0.057765
 C        -0.019777        -2.531239        -0.018534
 O        -1.697286        -0.715076        -0.943121
 H        -2.731688        -1.802825         2.765220
 H        -3.856329        -1.285479         1.556976
 H        -2.778509        -2.572840         1.175187
 H        -1.366115         0.060468         2.031356
 H        -3.053258         0.821711        -0.245992
 H        -0.643725         1.727043        -1.181430
 H        -0.366972         2.093229         0.506423
 H         0.622983        -2.523922         0.839857
 H        -0.754693        -3.312878         0.074045
 H         0.543096        -2.551566        -0.913863
