19
Iteration:  3888
 C        -2.834890        -1.548526         1.622928
 C        -1.715067        -0.615375         1.207657
 C        -1.975466         0.309616        -0.026329
 C        -0.641718         1.202211        -0.180545
 C         0.262854         0.029905         0.060051
 O         1.423875        -0.072813         0.245853
 C        -0.729375        -1.175522         0.082982
 C        -0.114198        -2.535797        -0.007598
 O        -1.747812        -0.758654        -0.964650
 H        -3.495671        -2.076814         0.953147
 H        -2.405282        -2.295131         2.305048
 H        -3.512031        -1.093006         2.394496
 H        -1.315467        -0.072260         2.130591
 H        -2.935494         0.855206        -0.132340
 H        -0.683266         1.741216        -1.098051
 H        -0.414293         1.866938         0.640329
 H         0.418486        -2.768070         0.928216
 H        -0.898281        -3.334290        -0.201089
 H         0.622543        -2.559337        -0.805602
