19
Iteration:   314charge 0 multiplicity 1
 C        -2.917932        -1.595961         1.511034
 C        -1.718656        -0.701572         1.209433
 C        -1.971168         0.324708        -0.000221
 C        -0.659025         1.177730        -0.294765
 C         0.247257         0.063089         0.027800
 O         1.431065         0.186077         0.210457
 C        -0.583090        -1.183304         0.243988
 C        -0.172025        -2.620797         0.102576
 O        -1.690720        -0.822032        -0.855918
 H        -2.676281        -2.602784         1.937130
 H        -3.571973        -1.103725         2.284281
 H        -3.609127        -1.853751         0.669735
 H        -1.248647        -0.224483         2.135530
 H        -2.941430         0.837077        -0.222867
 H        -0.520593         1.396204        -1.460771
 H        -0.397072         2.193379         0.222884
 H         0.587091        -3.048465         0.755561
 H        -1.036164        -3.332003         0.127949
 H         0.094163        -2.685992        -0.983756
