19
Iteration:  2966charge 0 multiplicity 1
 C        -2.994228        -1.509264         1.673743
 C        -1.876997        -0.653735         1.158259
 C        -2.065433         0.284223        -0.045243
 C        -0.629141         1.205226        -0.085981
 C         0.268742        -0.021078         0.204136
 O         1.513948        -0.006948         0.016437
 C        -0.718724        -1.170212         0.176487
 C        -0.071307        -2.608989         0.077632
 O        -1.518234        -0.744322        -1.032155
 H        -3.478137        -2.286028         1.029214
 H        -2.881782        -2.066738         2.653707
 H        -3.795292        -0.768264         1.938456
 H        -1.509375         0.034132         1.987648
 H        -3.100955         0.720600        -0.255327
 H        -0.492782         1.724476        -1.089956
 H        -0.659338         1.936206         0.653093
 H         0.858621        -2.656442         0.666619
 H        -0.892041        -3.275723         0.453973
 H         0.300674        -2.698439        -0.974654
