19
Iteration:  3681charge 0 multiplicity 1
 C        -2.915811        -1.542166         1.592079
 C        -1.735737        -0.608776         1.172127
 C        -1.967271         0.330580        -0.016849
 C        -0.647839         1.195792        -0.078530
 C         0.259369         0.022064         0.124447
 O         1.440136         0.039013         0.062359
 C        -0.688846        -1.208349         0.155712
 C        -0.175418        -2.630442         0.089782
 O        -1.634241        -0.796263        -1.000346
 H        -3.608802        -1.708565         0.794477
 H        -2.493237        -2.486417         1.904596
 H        -3.468159        -1.197830         2.470841
 H        -1.239172        -0.211524         2.142898
 H        -2.914437         0.831683        -0.267384
 H        -0.698416         1.855861        -0.990827
 H        -0.468237         1.898178         0.791566
 H         0.304868        -2.617965         1.066191
 H        -1.053678        -3.248639         0.147027
 H         0.433584        -2.743749        -0.797362
