19
Iteration:  1779
 C        -2.858494        -1.540913         1.645684
 C        -1.733426        -0.541724         1.225893
 C        -1.935339         0.292362         0.023119
 C        -0.653657         1.163098        -0.042454
 C         0.238917        -0.025801         0.112735
 O         1.475242         0.098603         0.035522
 C        -0.757666        -1.195515         0.084300
 C        -0.174844        -2.617751        -0.010409
 O        -1.665182        -0.817759        -0.961902
 H        -2.648787        -1.993116         2.675445
 H        -3.796241        -0.989633         1.851470
 H        -3.109069        -2.419947         1.049543
 H        -1.218422        -0.001151         2.008676
 H        -3.027644         0.692485        -0.055022
 H        -0.666202         1.684692        -1.096437
 H        -0.527503         2.009859         0.678821
 H         0.117162        -2.878612         1.052013
 H        -1.018539        -3.285028        -0.386444
 H         0.658674        -2.755900        -0.701478
