19
Iteration:  2932
 C        -2.899825        -1.547512         1.432690
 C        -1.740677        -0.568372         1.221649
 C        -1.971193         0.301239        -0.005239
 C        -0.649617         1.199225        -0.050606
 C         0.273281         0.007851         0.054380
 O         1.483834         0.087430         0.040836
 C        -0.652915        -1.193436         0.219673
 C        -0.218174        -2.575142         0.146626
 O        -1.640869        -0.903795        -0.928221
 H        -3.109094        -2.152206         0.538292
 H        -3.023354        -2.001806         2.429511
 H        -3.664112        -0.724350         1.328121
 H        -1.404976        -0.068607         2.163570
 H        -3.047239         0.708079        -0.086567
 H        -0.474496         1.990310        -0.850619
 H        -0.608706         1.737210         0.869535
 H         0.764065        -2.832174         0.509533
 H        -0.922253        -3.208456         0.683544
 H        -0.452104        -2.914934        -0.892609
