19
Iteration:  2745
 C        -2.780199        -1.620423         1.560051
 C        -1.728024        -0.562870         1.151967
 C        -2.039895         0.408360        -0.048600
 C        -0.730842         1.238170        -0.159899
 C         0.288794        -0.036735         0.078922
 O         1.490245        -0.127830         0.198276
 C        -0.727157        -1.155386         0.090415
 C        -0.135274        -2.534322         0.195483
 O        -1.708103        -0.736067        -0.963645
 H        -2.999573        -2.314619         0.741972
 H        -2.404908        -2.267199         2.352936
 H        -3.817876        -1.365419         1.847401
 H        -1.446041         0.012719         2.032119
 H        -3.002390         0.892978        -0.245742
 H        -0.498031         1.682561        -1.065022
 H        -0.657687         2.002071         0.562566
 H         0.014925        -3.041093         1.222000
 H        -0.886638        -3.117000        -0.294854
 H         0.643691        -2.543239        -0.600547
