19
Iteration:  3427charge 0 multiplicity 1
 C        -2.988283        -1.422322         1.506919
 C        -1.700525        -0.640763         1.188127
 C        -2.044132         0.295968         0.018596
 C        -0.731386         1.170546        -0.069039
 C         0.292529         0.018688         0.102045
 O         1.500911        -0.017665         0.032824
 C        -0.654801        -1.229539         0.195421
 C        -0.104003        -2.578285         0.032103
 O        -1.640356        -0.815968        -0.860106
 H        -2.974781        -2.187189         0.723285
 H        -2.940360        -2.022223         2.397269
 H        -3.779866        -0.703717         1.517599
 H        -1.344204        -0.078653         2.113002
 H        -2.947201         0.794613        -0.190089
 H        -0.668526         1.809572        -1.072111
 H        -0.848674         1.882856         0.877049
 H         0.804121        -2.534908         0.619664
 H        -0.789875        -3.321932         0.306086
 H         0.119675        -2.717339        -1.017269
