19
Iteration:  2283
 C        -2.832863        -1.532495         1.644150
 C        -1.663011        -0.646765         1.214006
 C        -1.966534         0.269718         0.037845
 C        -0.630436         1.183389        -0.201349
 C         0.296961         0.024734         0.045951
 O         1.501820         0.193536         0.245683
 C        -0.716607        -1.307405         0.147656
 C        -0.322537        -2.639626        -0.076352
 O        -1.705825        -0.762346        -0.971509
 H        -2.536278        -2.551438         1.713466
 H        -3.243620        -1.334699         2.652365
 H        -3.615458        -1.559511         0.930899
 H        -1.264684        -0.054815         2.082375
 H        -3.094137         0.699557         0.152210
 H        -0.676884         1.515696        -1.222770
 H        -0.425504         2.094284         0.458909
 H         0.001493        -2.909377         0.939562
 H        -1.157137        -3.292299        -0.269576
 H         0.528435        -2.759059        -0.839842
