19
Iteration:   303charge 0 multiplicity 1
 C        -2.998223        -1.626423         1.463225
 C        -1.688688        -0.707291         1.307371
 C        -1.999350         0.293873         0.114462
 C        -0.667224         1.121490        -0.363799
 C         0.319735         0.042348         0.004077
 O         1.511094         0.246750         0.186454
 C        -0.690698        -1.171817         0.143776
 C        -0.193678        -2.590658         0.116220
 O        -1.637173        -0.803987        -0.856093
 H        -2.797437        -2.577305         2.012138
 H        -3.754597        -1.012908         2.018629
 H        -3.327259        -1.770030         0.407842
 H        -1.302948        -0.410945         2.335252
 H        -2.962911         0.840465         0.056875
 H        -0.750661         1.313045        -1.515243
 H        -0.453948         2.013260         0.349166
 H         0.572400        -2.820795         0.866021
 H        -1.138988        -3.120403         0.379749
 H         0.185838        -2.908577        -0.888040
