19
Iteration:  2185
 C        -2.794004        -1.641287         1.591290
 C        -1.743597        -0.628341         1.164448
 C        -1.963256         0.361909         0.020443
 C        -0.752175         1.224582        -0.008956
 C         0.300548        -0.005912        -0.039251
 O         1.464331        -0.133392         0.039335
 C        -0.718941        -1.142194         0.173015
 C        -0.177241        -2.498237         0.095355
 O        -1.679027        -0.694905        -0.958189
 H        -3.038750        -1.550897         2.595043
 H        -3.793920        -1.406752         1.212404
 H        -2.596734        -2.652598         1.343709
 H        -1.293935        -0.182285         2.130291
 H        -3.011156         0.879916        -0.107365
 H        -0.693318         1.916688        -0.853340
 H        -0.672023         1.693221         1.017061
 H         0.845632        -2.540035         0.338548
 H        -0.699473        -3.140308         0.736296
 H        -0.197875        -2.850570        -0.948817
