19
Iteration:  4656
 C        -2.934929        -1.592093         1.421783
 C        -1.689553        -0.621782         1.183308
 C        -1.916891         0.355389        -0.025000
 C        -0.699932         1.274683         0.041989
 C         0.251876         0.054258        -0.006106
 O         1.487232        -0.066068        -0.022758
 C        -0.712825        -1.168187         0.194877
 C        -0.208195        -2.589665         0.204040
 O        -1.624744        -0.756316        -0.899726
 H        -3.517742        -2.104111         0.618303
 H        -2.489877        -2.575337         1.862284
 H        -3.670952        -1.179967         2.169378
 H        -1.344672        -0.049031         2.056120
 H        -2.889092         0.813855        -0.423042
 H        -0.689695         1.934694        -0.746225
 H        -0.730901         1.555671         1.047668
 H         0.345851        -2.751500         1.112684
 H        -1.141311        -3.288681         0.192599
 H         0.487875        -2.784528        -0.589301
