19
Iteration:  1898
 C        -2.913207        -1.513409         1.513128
 C        -1.722379        -0.653227         1.220195
 C        -1.919766         0.306378         0.088179
 C        -0.733505         1.197076        -0.051784
 C         0.290739         0.109730         0.095383
 O         1.462940         0.131548        -0.034878
 C        -0.702834        -1.233701         0.212158
 C        -0.185694        -2.752376         0.146667
 O        -1.623247        -0.783467        -0.986471
 H        -2.695108        -2.596486         1.617809
 H        -3.404189        -1.174508         2.403666
 H        -3.567137        -1.438745         0.655085
 H        -1.124844        -0.260173         2.089207
 H        -2.987333         0.835165        -0.085294
 H        -0.766352         1.634645        -1.148912
 H        -0.485105         2.058434         0.602829
 H         0.837632        -2.993999         0.374462
 H        -0.937685        -3.303376         0.711505
 H        -0.432199        -2.891321        -0.841452
