19
Iteration:   474
 C        -3.079260        -1.629904         1.619295
 C        -1.761813        -0.740737         1.148374
 C        -1.940186         0.293388        -0.058888
 C        -0.717269         1.254012        -0.066259
 C         0.266117         0.110262         0.053468
 O         1.482563        -0.012408        -0.003790
 C        -0.755736        -1.222019         0.097125
 C        -0.052551        -2.551676         0.290923
 O        -1.568625        -0.705007        -1.014764
 H        -2.546133        -2.408351         2.109787
 H        -3.538093        -0.970792         2.313181
 H        -3.649216        -1.825768         0.731975
 H        -1.289804        -0.369865         2.064968
 H        -2.987009         0.767567        -0.201026
 H        -0.706513         1.707197        -1.033792
 H        -0.647293         1.965778         0.868233
 H         0.781147        -2.306072         0.962995
 H        -0.665494        -3.287582         0.839426
 H         0.343288        -2.992686        -0.654287
