19
Iteration:  4328charge 0 multiplicity 1
 C        -2.883688        -1.501789         1.472114
 C        -1.708624        -0.558960         1.157596
 C        -1.924699         0.306895        -0.027401
 C        -0.727565         1.163171         0.022424
 C         0.310171         0.038413         0.100628
 O         1.511144         0.012880         0.007519
 C        -0.748562        -1.211675         0.143272
 C        -0.120238        -2.645066         0.137732
 O        -1.787369        -0.786608        -0.907242
 H        -3.525526        -1.592328         0.608217
 H        -2.582932        -2.410520         1.976952
 H        -3.517387        -1.046029         2.196109
 H        -1.259584        -0.113942         2.089749
 H        -2.874916         0.806241        -0.098308
 H        -0.438540         1.774023        -0.796538
 H        -0.749117         1.817485         0.871747
 H         0.319730        -2.960563         1.086004
 H        -0.795086        -3.316816        -0.369078
 H         0.706766        -2.709668        -0.524103
