19
Iteration:  3933
 C        -2.742935        -1.593185         1.652738
 C        -1.740750        -0.645539         1.095222
 C        -1.942897         0.346756        -0.042175
 C        -0.691525         1.174491        -0.052372
 C         0.240594         0.044826         0.095344
 O         1.450317         0.011656         0.165596
 C        -0.698719        -1.177586         0.116286
 C        -0.298558        -2.623497         0.068034
 O        -1.653595        -0.698524        -0.992072
 H        -2.959670        -2.347481         0.875251
 H        -2.535621        -2.087026         2.602556
 H        -3.784085        -1.186218         1.746813
 H        -1.165359        -0.122405         2.023492
 H        -2.924455         0.884183        -0.210786
 H        -0.422839         1.469044        -1.048056
 H        -0.746287         2.002881         0.661636
 H         0.531183        -2.779305         0.754838
 H        -1.119321        -3.368652         0.282739
 H         0.104955        -2.824645        -0.937080
