19
Iteration:  4018charge 0 multiplicity 1
 C        -2.995570        -1.575798         1.534385
 C        -1.814269        -0.672482         1.233608
 C        -2.006251         0.375075         0.040096
 C        -0.694707         1.249917        -0.064894
 C         0.264210        -0.042250         0.000094
 O         1.509754        -0.089816         0.019800
 C        -0.643470        -1.208426         0.162177
 C        -0.042242        -2.504521         0.131666
 O        -1.680775        -0.730574        -0.915854
 H        -3.606087        -1.654182         0.640728
 H        -2.805449        -2.603776         1.846958
 H        -3.489861        -0.858417         2.235783
 H        -1.420590        -0.327108         2.100593
 H        -3.025151         0.646791        -0.177382
 H        -0.502379         1.904581        -0.902893
 H        -0.488810         1.889509         0.764695
 H         0.841894        -2.479202         0.719525
 H        -0.794192        -3.309001         0.212796
 H         0.442367        -2.584381        -0.824930
