19
Iteration:  4158
 C        -2.850390        -1.492868         1.565133
 C        -1.677960        -0.516923         1.116110
 C        -1.992437         0.281951        -0.031089
 C        -0.770203         1.217261        -0.028233
 C         0.299771        -0.023502         0.123057
 O         1.492804        -0.135460         0.156283
 C        -0.692896        -1.166176         0.128861
 C        -0.092740        -2.468929        -0.007575
 O        -1.805336        -0.849360        -0.916274
 H        -3.609057        -1.682239         0.822023
 H        -2.704446        -2.500883         1.894979
 H        -3.380265        -0.893999         2.274996
 H        -1.183726        -0.074082         2.085027
 H        -2.895936         0.835012        -0.085708
 H        -0.512287         1.534722        -1.138240
 H        -0.627098         1.975615         0.764496
 H         0.729153        -2.547605         0.731857
 H        -0.787833        -3.358657         0.053069
 H         0.517201        -2.547036        -0.910310
