19
Iteration:  1444charge 0 multiplicity 1
 C        -2.770474        -1.554842         1.556472
 C        -1.696698        -0.584821         1.181395
 C        -2.003825         0.384377        -0.006069
 C        -0.787816         1.198304        -0.041936
 C         0.274644         0.015096         0.075484
 O         1.457331        -0.049571         0.059628
 C        -0.706125        -1.143504         0.158176
 C        -0.223757        -2.540843         0.072776
 O        -1.634760        -0.841963        -0.962177
 H        -2.200373        -2.242771         2.264955
 H        -3.597074        -1.241291         2.226937
 H        -3.202857        -2.106946         0.702989
 H        -1.277079        -0.141410         2.067668
 H        -2.990462         0.676217         0.083022
 H        -0.603927         1.871581        -0.982322
 H        -0.592116         1.986650         0.727953
 H         0.140404        -2.885301         1.020861
 H        -1.075292        -3.215842        -0.155727
 H         0.434818        -2.761033        -0.750770
