19
Iteration:  1310
 C        -2.852673        -1.617505         1.629702
 C        -1.708511        -0.711299         1.188846
 C        -2.064363         0.324719         0.013088
 C        -0.753480         1.221978        -0.108973
 C         0.280239         0.004679         0.006597
 O         1.509626        -0.021483         0.097531
 C        -0.673041        -1.174658         0.111820
 C        -0.206409        -2.596146         0.148307
 O        -1.625394        -0.616664        -0.975491
 H        -2.383405        -2.556116         1.987902
 H        -3.491407        -1.063348         2.342906
 H        -3.655074        -1.890737         0.894015
 H        -1.325132        -0.209650         2.069983
 H        -3.041087         0.530636        -0.265959
 H        -0.525240         1.669728        -1.164110
 H        -0.583354         2.001042         0.712229
 H         0.630841        -2.672615         0.889588
 H        -1.055472        -3.237932         0.255719
 H         0.251438        -2.816294        -0.824657
