19
Iteration:    23charge 0 multiplicity 1
 C        -2.826760        -1.539421         1.373007
 C        -1.688381        -0.514023         1.231607
 C        -1.999826         0.341484        -0.013678
 C        -0.705658         1.176475        -0.178799
 C         0.273982         0.022285         0.086349
 O         1.510264         0.178833         0.183099
 C        -0.675629        -1.220327         0.228353
 C        -0.169123        -2.638675         0.000648
 O        -1.766109        -0.966006        -0.764911
 H        -2.509071        -2.458535         1.867158
 H        -3.673940        -1.154843         1.951640
 H        -3.201602        -1.831764         0.392384
 H        -1.346999        -0.001917         2.125719
 H        -2.988871         0.773689        -0.185918
 H        -0.651089         1.642252        -1.119530
 H        -0.690521         1.976801         0.555717
 H         0.791014        -2.807918         0.501748
 H        -0.884642        -3.408403         0.308966
 H        -0.025083        -2.706681        -1.080296
