19
Iteration:  4669
 C        -2.840473        -1.620038         1.484113
 C        -1.846471        -0.603337         1.197231
 C        -2.015295         0.372105        -0.061116
 C        -0.697651         1.193539         0.058318
 C         0.254211         0.005804         0.082287
 O         1.479962        -0.096209        -0.070943
 C        -0.708331        -1.129251         0.210149
 C        -0.214055        -2.517012         0.198534
 O        -1.542826        -0.761097        -0.942346
 H        -3.086888        -1.799017         0.459506
 H        -2.483963        -2.436419         2.122991
 H        -3.719691        -1.195559         1.946551
 H        -1.405901        -0.286552         2.112401
 H        -2.979363         0.882467        -0.275777
 H        -0.384050         1.911248        -0.704626
 H        -0.566088         1.908472         0.876488
 H         0.484169        -2.775027         1.014282
 H        -1.063256        -3.256611         0.166723
 H         0.257773        -2.699020        -0.819222
