19
Iteration:  2924
 C        -2.889973        -1.480185         1.364533
 C        -1.681862        -0.623045         1.194034
 C        -2.016907         0.301728         0.013326
 C        -0.717561         1.184190        -0.070273
 C         0.263567         0.058974         0.077264
 O         1.507234         0.062956         0.040940
 C        -0.656594        -1.154607         0.196005
 C        -0.244959        -2.583021         0.177170
 O        -1.648818        -0.857503        -0.870233
 H        -2.917316        -2.207451         0.507690
 H        -2.812802        -2.156206         2.271991
 H        -3.886588        -0.977682         1.385430
 H        -1.275751        -0.242832         2.177542
 H        -3.045245         0.614698        -0.157815
 H        -0.281256         1.640346        -0.973422
 H        -0.395448         1.652830         0.838971
 H         0.827750        -2.854703         0.473419
 H        -1.053926        -3.116710         0.893421
 H        -0.332042        -3.120986        -0.847305
