19
Iteration:  4081charge 0 multiplicity 1
 C        -2.789557        -1.562666         1.493361
 C        -1.742894        -0.578334         1.218420
 C        -1.953286         0.275573        -0.012365
 C        -0.733353         1.285782         0.036272
 C         0.326618         0.001075         0.002423
 O         1.491734         0.020214         0.003931
 C        -0.645260        -1.136462         0.153038
 C        -0.343825        -2.602076         0.113246
 O        -1.634589        -0.832891        -0.901058
 H        -2.969834        -2.230799         0.624621
 H        -2.530246        -2.317323         2.331169
 H        -3.777073        -1.125250         1.756983
 H        -1.406196        -0.128850         2.261266
 H        -2.816597         0.866691        -0.192478
 H        -0.671397         1.893345        -0.974487
 H        -0.803886         1.855095         0.991226
 H        -0.046902        -3.089434         1.084803
 H        -1.280499        -3.150391        -0.189077
 H         0.402654        -2.802092        -0.670993
