19
Iteration:  2989charge 0 multiplicity 1
 C        -2.926833        -1.459042         1.665891
 C        -1.819743        -0.631262         1.151489
 C        -1.990698         0.298495        -0.107765
 C        -0.726126         1.191501        -0.089963
 C         0.249463         0.027122         0.062838
 O         1.448654        -0.100332         0.126161
 C        -0.795693        -1.205708         0.146709
 C        -0.050908        -2.531336         0.085354
 O        -1.525307        -0.757652        -0.976954
 H        -3.509499        -2.032204         0.892703
 H        -2.595362        -2.313528         2.348558
 H        -3.633654        -0.926155         2.331483
 H        -1.102872        -0.316761         1.961126
 H        -3.006546         0.645146        -0.306471
 H        -0.523330         1.814373        -0.984609
 H        -0.708993         1.854017         0.704224
 H         0.587481        -2.622615         1.007294
 H        -0.979196        -3.206568         0.182765
 H         0.653917        -2.487473        -0.778932
