19
Iteration:  2883charge 0 multiplicity 1
 C        -2.988975        -1.671473         1.491072
 C        -1.788159        -0.664141         1.198779
 C        -2.019375         0.401089        -0.026562
 C        -0.568973         1.168054        -0.172022
 C         0.278471         0.013252         0.032690
 O         1.453471        -0.039998         0.080672
 C        -0.675197        -1.157079         0.186653
 C        -0.159060        -2.519692         0.240908
 O        -1.640043        -0.695305        -0.908412
 H        -3.434204        -2.016329         0.563310
 H        -2.339059        -2.441886         1.884347
 H        -3.723192        -1.410555         2.213150
 H        -1.278820        -0.332653         2.098935
 H        -2.896360         0.917338        -0.304874
 H        -0.719303         1.673418        -1.091151
 H        -0.382505         2.103342         0.551617
 H         0.836058        -2.428587         0.679860
 H        -0.763125        -3.288877         0.718197
 H        -0.032352        -2.887273        -0.761686
