19
Iteration:  2015charge 0 multiplicity 1
 C        -2.770683        -1.554387         1.593836
 C        -1.574168        -0.653080         1.196845
 C        -1.991556         0.341794         0.022552
 C        -0.780024         1.189213        -0.058998
 C         0.375137         0.004614        -0.021197
 O         1.529305         0.188447         0.172745
 C        -0.685238        -1.221365         0.117629
 C        -0.348584        -2.731246        -0.039640
 O        -1.789417        -0.746003        -0.882060
 H        -3.416406        -0.854722         2.223601
 H        -3.405828        -1.831249         0.722465
 H        -2.404150        -2.408196         2.165158
 H        -1.126193        -0.167977         2.076016
 H        -2.978401         0.731474        -0.105068
 H        -0.771649         1.664388        -1.013129
 H        -0.415514         1.783252         0.766034
 H        -0.163706        -3.423148         0.839449
 H        -1.190689        -3.229432        -0.631004
 H         0.565457        -2.880615        -0.697516
