19
Iteration:  4231
 C        -2.788149        -1.533827         1.554365
 C        -1.617377        -0.611085         1.179779
 C        -2.014292         0.351225         0.003898
 C        -0.710670         1.223146        -0.060002
 C         0.349314         0.027588         0.027468
 O         1.500966         0.071373         0.221285
 C        -0.659828        -1.193771         0.067684
 C        -0.373058        -2.681466         0.065102
 O        -1.695427        -0.811991        -0.936274
 H        -2.994977        -2.163813         0.615837
 H        -2.699250        -2.261141         2.441940
 H        -3.793509        -0.999118         1.672989
 H        -1.355830        -0.089203         2.073291
 H        -2.953037         0.816128        -0.277209
 H        -0.622853         1.804194        -0.990999
 H        -0.686464         1.902829         0.762630
 H         0.710159        -2.826205         0.160591
 H        -0.999096        -3.389158         0.625287
 H        -0.490266        -2.962813        -0.973210
