19
Iteration:  3029charge 0 multiplicity 1
 C        -2.830916        -1.553412         1.485235
 C        -1.667173        -0.634957         1.185895
 C        -2.001672         0.326233        -0.015609
 C        -0.637540         1.155816        -0.267940
 C         0.315580        -0.003837         0.087054
 O         1.486297         0.076990         0.230699
 C        -0.749712        -1.178507         0.092848
 C        -0.224782        -2.555088         0.150471
 O        -1.763351        -0.816468        -0.873972
 H        -3.303571        -1.760027         0.532532
 H        -2.369633        -2.480910         1.825558
 H        -3.394118        -1.133351         2.336398
 H        -1.265223        -0.196695         2.092178
 H        -3.015885         0.829393        -0.232258
 H        -0.510552         1.783111        -1.256964
 H        -0.569103         2.057606         0.571518
 H        -0.134035        -2.894490         1.140414
 H        -0.920156        -3.261508        -0.199359
 H         0.695542        -2.824941        -0.403245
