19
Iteration:     8charge 0 multiplicity 1
 C        -2.840791        -1.545452         1.474176
 C        -1.755401        -0.609394         1.203118
 C        -2.007213         0.315543        -0.014366
 C        -0.785215         1.182006        -0.123629
 C         0.242151         0.056409         0.071012
 O         1.500183         0.073223         0.121752
 C        -0.725548        -1.173470         0.148405
 C        -0.146941        -2.575068         0.075804
 O        -1.646699        -0.854054        -0.845532
 H        -2.288704        -2.308570         2.079462
 H        -3.596194        -0.934607         2.007409
 H        -3.211957        -2.058877         0.576096
 H        -1.397828        -0.344329         2.204456
 H        -2.989513         0.710183        -0.302975
 H        -0.331759         1.676379        -1.091071
 H        -0.526492         1.869624         0.621343
 H         0.656745        -2.732779         0.889698
 H        -0.813498        -3.444809         0.297022
 H         0.294626        -2.781614        -0.985765
