19
Iteration:  4765charge 0 multiplicity 1
 C        -2.954290        -1.502062         1.572870
 C        -1.732748        -0.608890         1.203341
 C        -1.909680         0.313671         0.027540
 C        -0.673672         1.165059        -0.138806
 C         0.244382         0.025631         0.015899
 O         1.467454         0.033337         0.221764
 C        -0.710203        -1.221407         0.143048
 C        -0.162306        -2.595487        -0.009562
 O        -1.658768        -0.786856        -0.930312
 H        -3.456165        -1.799918         0.574676
 H        -2.512632        -2.413343         2.188665
 H        -3.711990        -0.976338         2.251847
 H        -1.171099        -0.371909         2.202159
 H        -2.851093         0.814340        -0.378444
 H        -0.761845         1.769455        -1.035704
 H        -0.418422         1.979353         0.547779
 H         0.651490        -2.666326         0.697416
 H        -0.925592        -3.420258         0.249533
 H         0.228680        -2.815496        -1.003441
