19
Iteration:  1915
 C        -2.901457        -1.518061         1.577196
 C        -1.726061        -0.578163         1.237238
 C        -2.043820         0.343623        -0.022781
 C        -0.738106         1.203265        -0.004226
 C         0.282477        -0.037271        -0.011290
 O         1.483265         0.038481         0.030333
 C        -0.670862        -1.223203         0.086693
 C        -0.152331        -2.641736         0.075866
 O        -1.629008        -0.757475        -0.896803
 H        -2.450569        -2.405984         2.034326
 H        -3.620758        -1.020753         2.284474
 H        -3.454836        -1.860913         0.674297
 H        -1.421993        -0.004240         2.134773
 H        -2.954412         0.750293        -0.254407
 H        -0.613977         1.804507        -0.839302
 H        -0.685237         1.743925         0.948241
 H         0.860390        -2.538992         0.552278
 H        -0.690724        -3.368251         0.705958
 H        -0.004565        -3.213671        -0.921367
