19
Iteration:   782charge 0 multiplicity 1
 C        -2.926225        -1.547746         1.646695
 C        -1.797221        -0.674295         1.133071
 C        -2.015229         0.270040        -0.066981
 C        -0.699460         1.172642         0.042958
 C         0.255541         0.002630         0.094363
 O         1.438306         0.032103        -0.048507
 C        -0.669421        -1.184937         0.150831
 C        -0.151739        -2.560777         0.168025
 O        -1.539962        -0.715617        -1.029713
 H        -2.929612        -1.863668         2.707274
 H        -3.783303        -0.806920         1.584273
 H        -3.085430        -2.469152         1.005817
 H        -1.218809        -0.215747         1.980711
 H        -3.040324         0.677855        -0.288859
 H        -0.461038         1.727596        -0.806420
 H        -0.849776         1.748977         1.012298
 H         0.493179        -2.534620         1.090854
 H        -0.810604        -3.399037         0.262646
 H         0.587871        -2.697728        -0.611991
