19
Iteration:  4606
 C        -2.963450        -1.491751         1.520976
 C        -1.779974        -0.702962         1.240160
 C        -1.967134         0.366845         0.116121
 C        -0.643018         1.231005        -0.184269
 C         0.296893         0.013679         0.043754
 O         1.468454         0.043198         0.096173
 C        -0.693721        -1.208363         0.183335
 C        -0.144869        -2.621839         0.026330
 O        -1.631716        -0.797033        -0.892383
 H        -3.512658        -1.644720         0.593233
 H        -2.777023        -2.479615         1.904689
 H        -3.652783        -1.041167         2.220360
 H        -1.490825        -0.227843         2.210386
 H        -2.941884         0.780126        -0.054387
 H        -0.539709         1.510657        -1.312397
 H        -0.471762         2.020423         0.636413
 H         0.147329        -3.018330         1.029643
 H        -0.934281        -3.160592        -0.458715
 H         0.760973        -2.754684        -0.657113
