19
Iteration:  3145charge 0 multiplicity 1
 C        -3.020253        -1.514071         1.570208
 C        -1.732668        -0.684859         1.178857
 C        -2.037312         0.325647         0.000732
 C        -0.650308         1.203526        -0.101545
 C         0.278463         0.043078         0.111393
 O         1.445763        -0.045910         0.045073
 C        -0.749417        -1.195619         0.162544
 C        -0.065374        -2.519035         0.108182
 O        -1.548668        -0.781999        -0.958206
 H        -3.592223        -1.917333         0.684947
 H        -2.848387        -2.404170         2.229254
 H        -3.646110        -0.816709         2.189958
 H        -1.486053        -0.123113         2.120583
 H        -2.989009         0.787710        -0.183631
 H        -0.431693         1.496449        -1.102610
 H        -0.753742         1.899839         0.652207
 H         0.993121        -2.369709         0.639082
 H        -0.665523        -3.275538         0.675558
 H         0.021242        -2.975952        -0.937783
