19
Iteration:  1676
 C        -2.795981        -1.572837         1.605583
 C        -1.696561        -0.607804         1.202747
 C        -2.011013         0.361012        -0.057350
 C        -0.824147         1.297867        -0.097009
 C         0.268540        -0.059981         0.036449
 O         1.482519        -0.188004         0.118178
 C        -0.729290        -1.168500         0.109142
 C        -0.108643        -2.435307         0.114856
 O        -1.687859        -0.790352        -0.935243
 H        -2.465970        -2.581556         1.763333
 H        -3.241823        -1.224612         2.540876
 H        -3.534665        -1.470451         0.799211
 H        -1.202364        -0.108540         2.046903
 H        -3.046158         0.688174        -0.332094
 H        -0.714128         1.877893        -0.992411
 H        -0.718137         1.848973         0.881788
 H         0.670229        -2.459310         0.840765
 H        -0.782908        -3.232211         0.177989
 H         0.312941        -2.505132        -0.902009
