19
Iteration:  3392
 C        -2.854389        -1.544377         1.753569
 C        -1.838603        -0.632417         1.073157
 C        -2.041081         0.353889        -0.051639
 C        -0.665327         1.144069        -0.113270
 C         0.245269        -0.015775         0.056538
 O         1.478257        -0.020767         0.138780
 C        -0.732702        -1.200019         0.135065
 C        -0.137055        -2.556289         0.054825
 O        -1.579736        -0.728251        -0.981943
 H        -3.247675        -2.167690         0.949663
 H        -2.586936        -2.048146         2.670182
 H        -3.803006        -1.096734         1.887599
 H        -1.271595        -0.122339         1.929818
 H        -2.966307         0.911885        -0.244209
 H        -0.501235         1.858208        -0.959769
 H        -0.639457         1.814506         0.775208
 H         0.373815        -2.777472         0.987183
 H        -0.886216        -3.415867        -0.001149
 H         0.667871        -2.601322        -0.682364
