19
Iteration:  2454
 C        -2.832131        -1.734366         1.574740
 C        -1.826488        -0.652590         1.192482
 C        -2.018631         0.407289        -0.087449
 C        -0.627211         1.228025        -0.105669
 C         0.228075        -0.003901         0.092289
 O         1.480015        -0.082844         0.011928
 C        -0.776158        -1.131623         0.251592
 C        -0.160763        -2.519814         0.235385
 O        -1.613851        -0.679784        -1.002029
 H        -3.454504        -1.928494         0.668295
 H        -2.356409        -2.739207         1.863904
 H        -3.528548        -1.448651         2.408024
 H        -1.279755         0.018099         1.941193
 H        -2.926743         0.899697        -0.427520
 H        -0.588369         1.824489        -1.073120
 H        -0.538904         1.947870         0.721499
 H         0.644795        -2.529167         1.000969
 H        -0.812019        -3.356838         0.386819
 H         0.367257        -2.640317        -0.766417
