19
Iteration:  2609
 C        -2.799284        -1.637254         1.456790
 C        -1.770571        -0.575018         1.157789
 C        -1.996540         0.310189        -0.010574
 C        -0.687591         1.242485        -0.034469
 C         0.220588        -0.039713         0.032517
 O         1.438345        -0.144701         0.116204
 C        -0.753323        -1.116579         0.135481
 C        -0.113256        -2.417052         0.184084
 O        -1.678878        -0.752522        -0.972998
 H        -2.816048        -2.289905         0.530745
 H        -2.326005        -2.102096         2.373852
 H        -3.813143        -1.178670         1.606924
 H        -1.384821        -0.035913         2.116611
 H        -3.060767         0.720401        -0.025662
 H        -0.374804         1.711843        -0.988128
 H        -0.264382         1.783610         0.893001
 H         0.692620        -2.449954         0.850174
 H        -0.789455        -3.114156         0.780002
 H         0.006809        -2.935044        -0.768352
