19
Iteration:  1176
 C        -2.924219        -1.618768         1.589787
 C        -1.796531        -0.545756         1.189585
 C        -1.958996         0.319115        -0.047770
 C        -0.632341         1.209967         0.042166
 C         0.277206         0.035978         0.014998
 O         1.520084         0.020772        -0.018593
 C        -0.692830        -1.177028         0.107234
 C        -0.139591        -2.520002         0.144800
 O        -1.711324        -0.851717        -0.954016
 H        -2.456864        -2.590004         1.886235
 H        -3.492719        -1.240099         2.469689
 H        -3.594703        -1.862982         0.761739
 H        -1.300800        -0.114052         2.046881
 H        -2.910792         0.727488        -0.186439
 H        -0.445027         1.971556        -0.743431
 H        -0.892016         1.680578         1.065766
 H        -0.045312        -2.949060         1.129460
 H        -1.007561        -3.102321        -0.301655
 H         0.843974        -2.705757        -0.340886
