19
Iteration:  1098
 C        -2.914353        -1.524312         1.455509
 C        -1.769706        -0.534941         1.240301
 C        -1.954488         0.293669         0.005239
 C        -0.670823         1.155577         0.006510
 C         0.302489         0.030711         0.045209
 O         1.528275         0.162759         0.032866
 C        -0.592256        -1.239807         0.130054
 C        -0.230816        -2.626994         0.058758
 O        -1.738968        -0.884413        -0.851971
 H        -2.754739        -2.176194         2.319616
 H        -3.919473        -1.054637         1.483135
 H        -3.067881        -2.130461         0.546370
 H        -1.381969        -0.079091         2.139629
 H        -2.922378         0.880193        -0.096359
 H        -0.744991         1.724549        -0.883971
 H        -0.399919         1.712461         1.084966
 H         0.879284        -2.650794         0.321757
 H        -0.842655        -3.374108         0.615357
 H        -0.283372        -2.988692        -0.997426
