19
Iteration:  1874charge 0 multiplicity 1
 C        -2.989630        -1.622218         1.467761
 C        -1.763119        -0.667121         1.284341
 C        -1.952792         0.308419         0.052831
 C        -0.740683         1.152627        -0.127731
 C         0.324508         0.019620         0.001537
 O         1.590451         0.192505        -0.052402
 C        -0.665357        -1.149693         0.180081
 C        -0.300678        -2.628852         0.105140
 O        -1.568110        -0.791120        -0.772101
 H        -2.921419        -2.699491         1.344006
 H        -3.367427        -1.329406         2.446057
 H        -3.702321        -1.289362         0.744419
 H        -1.202193        -0.433294         2.229561
 H        -3.021553         0.661894        -0.221223
 H        -0.591912         1.536928        -1.153711
 H        -0.518903         2.002043         0.574205
 H         0.728178        -2.757649         0.437217
 H        -0.946504        -3.080236         0.827710
 H        -0.521116        -3.019654        -0.876178
