19
Iteration:  3717charge 0 multiplicity 1
 C        -3.038970        -1.498497         1.447686
 C        -1.745794        -0.723346         1.305783
 C        -1.964196         0.327455         0.089231
 C        -0.667930         1.207279        -0.133723
 C         0.287307         0.055559         0.067096
 O         1.499808         0.011461        -0.016906
 C        -0.644059        -1.173903         0.229674
 C        -0.138895        -2.568380         0.023576
 O        -1.622050        -0.811706        -0.858819
 H        -3.333495        -2.103682         0.593128
 H        -2.900500        -2.143419         2.293344
 H        -3.850602        -0.837237         1.668829
 H        -1.453199        -0.077386         2.214408
 H        -2.972041         0.804236        -0.091853
 H        -0.846671         1.721474        -1.057125
 H        -0.626401         2.009189         0.669928
 H         0.656796        -2.851629         0.624131
 H        -0.852363        -3.347899         0.292197
 H         0.320467        -2.924054        -0.820719
