19
Iteration:  2750
 C        -2.745608        -1.612914         1.525199
 C        -1.722998        -0.527562         1.157231
 C        -2.072521         0.389891        -0.057413
 C        -0.732434         1.208132        -0.187225
 C         0.295581        -0.000347         0.109367
 O         1.477664        -0.128765         0.203497
 C        -0.710761        -1.157209         0.114601
 C        -0.149336        -2.536675         0.178333
 O        -1.714639        -0.748899        -0.943024
 H        -2.928531        -2.335479         0.709959
 H        -2.410396        -2.189410         2.412370
 H        -3.783500        -1.293784         1.703692
 H        -1.302507        -0.001508         2.054318
 H        -3.111193         0.784360        -0.158143
 H        -0.438993         1.798878        -1.150029
 H        -0.492067         1.856425         0.738476
 H        -0.098001        -3.054352         1.097719
 H        -0.972687        -3.160404        -0.320866
 H         0.613778        -2.560477        -0.608270
