19
Iteration:   723
 C        -2.908878        -1.628399         1.516858
 C        -1.801580        -0.642158         1.204425
 C        -1.991540         0.355766         0.049531
 C        -0.681937         1.137034        -0.232847
 C         0.334460        -0.024961         0.054438
 O         1.542842         0.089545         0.197730
 C        -0.706617        -1.181020         0.242878
 C        -0.152101        -2.506055         0.088219
 O        -1.719772        -0.772473        -0.936217
 H        -2.555585        -2.503915         2.144913
 H        -3.810871        -1.158358         1.979892
 H        -3.326795        -1.977763         0.552750
 H        -1.256181        -0.374126         2.169036
 H        -2.954338         0.849340        -0.182876
 H        -0.734623         1.291819        -1.391685
 H        -0.495963         2.138924         0.177259
 H         0.882711        -2.419748         0.426831
 H        -0.671048        -3.360445         0.613491
 H        -0.119013        -2.716548        -1.020800
