19
Iteration:   924charge 0 multiplicity 1
 C        -2.835251        -1.467696         1.610085
 C        -1.791835        -0.569300         1.220294
 C        -2.056427         0.246134        -0.075875
 C        -0.838587         1.220987        -0.015027
 C         0.286323         0.041912         0.095630
 O         1.521326        -0.010239         0.112106
 C        -0.623401        -1.107848         0.179296
 C        -0.143922        -2.644150        -0.045254
 O        -1.593615        -0.838644        -0.991127
 H        -2.651711        -2.118140         2.483430
 H        -3.610662        -0.736844         2.012935
 H        -3.185345        -2.219590         0.826764
 H        -1.274593        -0.067885         2.104486
 H        -3.065021         0.641254        -0.294963
 H        -0.861982         1.928758        -0.761954
 H        -0.696588         1.812444         0.984242
 H         0.466919        -3.113971         0.800202
 H        -1.048425        -3.245277        -0.011242
 H         0.355614        -2.977661        -0.988269
