19
Iteration:  4185charge 0 multiplicity 1
 C        -2.885975        -1.576281         1.642620
 C        -1.763966        -0.550540         1.202799
 C        -1.887558         0.336788        -0.047201
 C        -0.688748         1.202621        -0.149256
 C         0.231020        -0.048610        -0.004856
 O         1.455403        -0.031574         0.214235
 C        -0.778120        -1.214162         0.142997
 C        -0.131392        -2.556568        -0.034052
 O        -1.661922        -0.736568        -0.908175
 H        -3.627657        -1.923872         0.809522
 H        -2.415904        -2.498296         2.192632
 H        -3.628771        -1.156056         2.425957
 H        -1.279878        -0.161119         2.142398
 H        -2.822915         0.905611        -0.274214
 H        -0.592279         1.795989        -1.030031
 H        -0.474954         1.879906         0.744655
 H         0.833743        -2.452340         0.506483
 H        -0.713438        -3.380819         0.357437
 H         0.108862        -2.876703        -1.082037
