19
Iteration:   981
 C        -2.860987        -1.608629         1.480460
 C        -1.686503        -0.632255         1.192186
 C        -1.969995         0.363572         0.064251
 C        -0.754718         1.182345        -0.238731
 C         0.302342         0.021584        -0.027954
 O         1.492036         0.028494         0.285593
 C        -0.680146        -1.182352         0.159989
 C        -0.203706        -2.648053         0.064020
 O        -1.715147        -0.684446        -0.910113
 H        -2.359503        -2.247630         2.230158
 H        -3.668673        -1.053230         2.009946
 H        -3.323782        -2.096275         0.604779
 H        -1.178317        -0.367033         2.169835
 H        -2.893314         0.851610         0.133733
 H        -0.979785         1.377835        -1.324957
 H        -0.587006         2.046922         0.289964
 H         0.838361        -2.509608         0.283314
 H        -0.567710        -3.316204         0.886878
 H        -0.238100        -3.178658        -0.891780
