19
Iteration:  1706charge 0 multiplicity 1
 C        -2.779967        -1.575879         1.612155
 C        -1.719208        -0.641815         1.172477
 C        -1.987320         0.389095        -0.006927
 C        -0.701551         1.189604        -0.153023
 C         0.237327        -0.087969         0.049156
 O         1.441759         0.004923         0.139608
 C        -0.656224        -1.212285         0.036895
 C        -0.109689        -2.554084         0.117626
 O        -1.800530        -0.707158        -0.910239
 H        -2.386302        -2.437478         2.210372
 H        -3.489888        -0.959532         2.202353
 H        -3.400726        -2.059004         0.827145
 H        -1.293425        -0.073474         2.093297
 H        -2.922631         0.813100        -0.151692
 H        -0.445162         1.723246        -1.081410
 H        -0.467827         1.777942         0.696339
 H         0.163907        -2.745793         1.196172
 H        -0.882750        -3.324972        -0.188420
 H         0.686863        -2.596184        -0.691375
