19
Iteration:   101
 C        -2.744786        -1.509770         1.697424
 C        -1.808671        -0.578658         1.055601
 C        -2.008171         0.346592        -0.144552
 C        -0.770017         1.192986        -0.049589
 C         0.237520         0.002355         0.004158
 O         1.473794        -0.057070         0.301903
 C        -0.737554        -1.177604         0.055208
 C        -0.128134        -2.461623         0.042052
 O        -1.638017        -0.922509        -0.963493
 H        -2.120374        -2.053092         2.394691
 H        -3.591129        -0.975035         2.110355
 H        -3.103456        -2.276734         1.015088
 H        -1.484054        -0.086921         1.983516
 H        -2.963356         0.786812        -0.499410
 H        -0.687557         1.983162        -0.611882
 H        -0.838030         1.803966         0.874832
 H         0.678254        -2.420945         0.757884
 H        -0.697693        -3.366605         0.319123
 H         0.179107        -2.539896        -0.959707
