19
Iteration:   661charge 0 multiplicity 1
 C        -2.837122        -1.487993         1.718676
 C        -1.716440        -0.561825         1.157862
 C        -2.040096         0.267945        -0.156254
 C        -0.764375         1.148778        -0.149099
 C         0.292044         0.014953         0.073244
 O         1.490970         0.102567         0.335349
 C        -0.644095        -1.235966         0.019595
 C        -0.153560        -2.590983         0.017023
 O        -1.686114        -0.852152        -1.010891
 H        -2.466306        -2.529240         1.917111
 H        -3.165692        -1.118304         2.724855
 H        -3.761300        -1.535181         1.113191
 H        -1.235211        -0.062507         2.025497
 H        -3.079359         0.743668        -0.405642
 H        -0.650495         1.649038        -1.089154
 H        -0.782986         1.987080         0.696661
 H         0.550343        -2.718501         0.877355
 H        -1.030316        -3.164014         0.390418
 H         0.337878        -2.957470        -0.891524
