19
Iteration:  2934
 C        -2.908309        -1.548103         1.444699
 C        -1.749076        -0.568140         1.223951
 C        -1.959197         0.304223        -0.013215
 C        -0.644759         1.203576        -0.040026
 C         0.293613        -0.004345         0.045083
 O         1.472800         0.090125         0.041631
 C        -0.657158        -1.191251         0.221036
 C        -0.214776        -2.582244         0.138861
 O        -1.637499        -0.904669        -0.932544
 H        -3.132667        -2.183940         0.558846
 H        -3.052047        -1.991771         2.463416
 H        -3.670595        -0.736328         1.371858
 H        -1.420834        -0.018496         2.160710
 H        -2.982383         0.743596        -0.118841
 H        -0.557319         2.003818        -0.808322
 H        -0.681871         1.760869         0.815493
 H         0.819306        -2.807191         0.528197
 H        -0.944473        -3.284241         0.724703
 H        -0.429586        -2.861359        -0.962263
