19
Iteration:   827charge 0 multiplicity 1
 C        -2.890300        -1.542167         1.423844
 C        -1.746854        -0.610758         1.290339
 C        -2.018560         0.293685        -0.018638
 C        -0.738134         1.171895        -0.061464
 C         0.304317         0.033480         0.094395
 O         1.505071         0.136729        -0.094479
 C        -0.673142        -1.230822         0.274442
 C        -0.201737        -2.635962         0.160856
 O        -1.611464        -0.788016        -0.852606
 H        -2.695277        -2.527618         1.837429
 H        -3.690173        -1.124141         2.093313
 H        -3.269932        -1.808175         0.396539
 H        -1.409628        -0.045739         2.199161
 H        -2.942874         0.693546        -0.388163
 H        -0.610673         1.475893        -1.094343
 H        -0.519165         2.089443         0.516195
 H        -0.139888        -3.183544         1.120947
 H        -0.945634        -3.177844        -0.377304
 H         0.731773        -2.757202        -0.386918
