19
Iteration:  3593
 C        -2.886283        -1.524857         1.557421
 C        -1.682943        -0.535975         1.229764
 C        -1.971925         0.290542        -0.003112
 C        -0.681014         1.111225        -0.123609
 C         0.323401        -0.006554         0.015139
 O         1.509471         0.072634         0.240776
 C        -0.697856        -1.169437         0.129228
 C        -0.225721        -2.586113        -0.057615
 O        -1.766187        -0.829347        -0.863964
 H        -3.052025        -2.278977         0.812130
 H        -2.826805        -2.056643         2.495425
 H        -3.704147        -0.809006         1.630085
 H        -0.977930        -0.177865         2.087208
 H        -2.876901         0.842223        -0.250666
 H        -0.737065         1.410911        -1.258798
 H        -0.639117         2.107123         0.535758
 H         0.463502        -2.830626         0.745858
 H        -0.899013        -3.382004        -0.153192
 H         0.451247        -2.702465        -0.904573
