19
Iteration:  2370charge 0 multiplicity 1
 C        -3.105893        -1.592943         1.554528
 C        -1.795603        -0.656652         1.291247
 C        -1.949384         0.280723         0.036162
 C        -0.670832         1.225266        -0.080366
 C         0.369229         0.022218         0.041079
 O         1.535942         0.040854        -0.040727
 C        -0.738503        -1.164805         0.197433
 C        -0.092178        -2.591538         0.085302
 O        -1.620639        -0.758725        -0.921085
 H        -2.990519        -2.595017         1.212147
 H        -3.175151        -1.669687         2.662333
 H        -3.980107        -1.140608         1.116889
 H        -1.498034        -0.272049         2.243881
 H        -2.868743         0.946867        -0.243205
 H        -0.631435         1.637981        -1.069102
 H        -0.866299         2.014287         0.684264
 H         0.780905        -2.732334         0.752210
 H        -0.848778        -3.393592         0.172943
 H         0.465755        -2.615726        -0.924278
