19
Iteration:  4827charge 0 multiplicity 1
 C        -2.759783        -1.544362         1.645838
 C        -1.690065        -0.546301         1.119151
 C        -1.963000         0.312194        -0.064937
 C        -0.670415         1.156569        -0.150816
 C         0.252078        -0.008794         0.005438
 O         1.436763         0.000613         0.340526
 C        -0.706820        -1.181651         0.064443
 C        -0.260742        -2.584565         0.065640
 O        -1.713324        -0.738704        -1.014065
 H        -3.446954        -1.892628         0.904708
 H        -2.252221        -2.389429         1.936009
 H        -3.324680        -1.328686         2.502476
 H        -1.014669        -0.141169         1.767691
 H        -2.934658         0.827735        -0.208985
 H        -0.735090         1.901024        -1.019908
 H        -0.498831         1.487195         0.936487
 H         0.038047        -2.814857         1.137986
 H        -1.062375        -3.434959         0.057608
 H         0.467024        -2.676230        -0.731313
