19
Iteration:  1352
 C        -2.891816        -1.473523         1.488076
 C        -1.685018        -0.586549         1.255731
 C        -2.007074         0.243278        -0.074296
 C        -0.727669         1.092378        -0.040340
 C         0.346271         0.061846         0.044909
 O         1.506278         0.204224         0.080925
 C        -0.630445        -1.214995         0.233275
 C        -0.286176        -2.674665        -0.043970
 O        -1.672057        -0.856879        -0.821842
 H        -2.552255        -2.402016         1.972259
 H        -3.537932        -0.858900         2.178547
 H        -3.502736        -1.627033         0.588001
 H        -1.175417        -0.302663         2.198091
 H        -2.971276         0.785281        -0.232367
 H        -0.700968         1.793237        -0.850976
 H        -0.531032         1.843044         0.734213
 H         0.745164        -2.861947         0.375523
 H        -0.988285        -3.396008         0.395096
 H        -0.316963        -2.940342        -1.134641
