19
Iteration:  1994
 C        -2.818899        -1.568892         1.646455
 C        -1.675336        -0.625052         1.246300
 C        -1.949933         0.287203         0.087437
 C        -0.641564         1.210472        -0.159202
 C         0.330355         0.067382         0.059653
 O         1.487850         0.117702         0.172977
 C        -0.676160        -1.209136        -0.019094
 C        -0.299355        -2.597195        -0.091114
 O        -1.773986        -0.853765        -0.861606
 H        -3.301742        -1.261486         2.588284
 H        -3.594024        -1.314709         0.914397
 H        -2.487792        -2.593756         1.571236
 H        -1.079870        -0.254705         2.120072
 H        -2.981274         0.733527        -0.012631
 H        -0.682143         1.704176        -1.128967
 H        -0.585361         1.997207         0.618759
 H        -0.117870        -2.995862         0.959773
 H        -1.202029        -3.173110        -0.463638
 H         0.611141        -2.879000        -0.665952
