19
Iteration:   745
 C        -2.893169        -1.646822         1.533783
 C        -1.748665        -0.563684         1.202022
 C        -2.005861         0.325963        -0.073010
 C        -0.690868         1.219018        -0.089977
 C         0.264621         0.083226         0.037740
 O         1.443635        -0.088282         0.124420
 C        -0.702671        -1.150708         0.152198
 C        -0.072577        -2.490896         0.084321
 O        -1.654535        -0.846364        -0.886656
 H        -2.689690        -2.155440         2.533888
 H        -3.852334        -1.055593         1.632812
 H        -3.215831        -2.366129         0.748866
 H        -1.431484         0.012477         2.152397
 H        -3.016086         0.765065        -0.329321
 H        -0.456331         1.980029        -0.958510
 H        -0.677049         1.900777         0.814124
 H         0.868418        -2.444339         0.619026
 H        -0.789756        -3.254666         0.541054
 H         0.054588        -2.785737        -0.997863
