19
Iteration:   676
 C        -2.815197        -1.441583         1.554221
 C        -1.643171        -0.649722         1.149265
 C        -1.969162         0.196052        -0.008715
 C        -0.756525         1.095557        -0.190364
 C         0.304127         0.053820        -0.021801
 O         1.459130         0.154069         0.360576
 C        -0.695978        -1.119211         0.063976
 C        -0.268921        -2.561292         0.093055
 O        -1.690305        -0.918885        -0.940367
 H        -2.614425        -2.465606         1.650393
 H        -3.197962        -1.138116         2.499906
 H        -3.642251        -1.316080         0.866879
 H        -1.191128        -0.006204         1.872360
 H        -2.907113         0.619135        -0.081452
 H        -0.654860         1.869886        -1.123505
 H        -0.577690         1.717549         0.660725
 H         0.747884        -2.776368         0.587344
 H        -0.926388        -3.379986         0.344746
 H         0.028202        -2.810842        -0.945084
