19
Iteration:  1869charge 0 multiplicity 1
 C        -2.989004        -1.629342         1.474964
 C        -1.771427        -0.621842         1.317027
 C        -1.993251         0.314982         0.075890
 C        -0.710422         1.142858        -0.103304
 C         0.349110         0.065701        -0.026688
 O         1.599548         0.168050        -0.045799
 C        -0.692829        -1.181146         0.182567
 C        -0.238592        -2.606729         0.122473
 O        -1.593374        -0.814673        -0.818531
 H        -2.782492        -2.696033         1.238763
 H        -3.469564        -1.407865         2.452119
 H        -3.701145        -1.272185         0.679072
 H        -1.313921        -0.252922         2.246382
 H        -2.875246         0.774363        -0.298836
 H        -0.905972         1.519296        -1.131494
 H        -0.400743         1.896717         0.600804
 H         0.780167        -2.961943         0.428020
 H        -1.024124        -3.135012         0.746660
 H        -0.608075        -2.964962        -0.918230
