19
Iteration:  2811
 C        -3.004388        -1.480228         1.670505
 C        -1.751052        -0.685160         1.153817
 C        -1.911168         0.285178         0.032778
 C        -0.700072         1.131039        -0.120799
 C         0.317294         0.042780         0.071826
 O         1.531083         0.150965         0.193244
 C        -0.760168        -1.255717         0.063389
 C        -0.180582        -2.643975         0.083586
 O        -1.626824        -0.755202        -1.001833
 H        -3.527693        -2.002752         0.847388
 H        -2.726825        -2.157229         2.500259
 H        -3.719714        -0.670294         2.049867
 H        -1.076918        -0.322939         1.974501
 H        -2.929317         0.693322        -0.176902
 H        -0.622754         1.393908        -1.183743
 H        -0.572248         2.038187         0.351652
 H         0.153097        -3.168477         1.044509
 H        -0.936111        -3.245154        -0.446060
 H         0.604475        -2.652757        -0.756456
