19
Iteration:  2923charge 0 multiplicity 1
 C        -2.890430        -1.473733         1.356053
 C        -1.675373        -0.631566         1.191417
 C        -2.015460         0.301766         0.014354
 C        -0.726573         1.182117        -0.066525
 C         0.274080         0.060807         0.077649
 O         1.503883         0.059724         0.041491
 C        -0.658291        -1.148202         0.190808
 C        -0.249002        -2.591686         0.183318
 O        -1.649307        -0.848250        -0.861562
 H        -2.895401        -2.216655         0.512142
 H        -2.787133        -2.169461         2.247165
 H        -3.921389        -1.015385         1.409795
 H        -1.258844        -0.251038         2.175760
 H        -3.067329         0.633253        -0.183774
 H        -0.287731         1.614509        -1.000362
 H        -0.400977         1.654659         0.782260
 H         0.818166        -2.833409         0.476922
 H        -1.034300        -3.104737         0.910222
 H        -0.315353        -3.122032        -0.847205
