19
Iteration:  3330
 C        -2.788430        -1.581249         1.550155
 C        -1.706466        -0.515388         1.203545
 C        -2.018573         0.339119         0.019917
 C        -0.714859         1.175677        -0.184870
 C         0.351296        -0.009739        -0.041606
 O         1.473498         0.090203         0.274605
 C        -0.677357        -1.178126         0.132561
 C        -0.274993        -2.670726         0.102708
 O        -1.724372        -0.815344        -0.936376
 H        -3.228917        -1.608074         0.519291
 H        -2.488252        -2.624656         1.637909
 H        -3.459790        -1.214106         2.368959
 H        -1.181240        -0.017806         2.019382
 H        -3.000410         0.724255        -0.002257
 H        -0.563532         1.582060        -1.260858
 H        -0.436513         2.061729         0.521712
 H         0.009174        -3.007156         1.102531
 H        -1.015867        -3.205882        -0.383208
 H         0.558255        -2.839276        -0.591119
