19
Iteration:  1370charge 0 multiplicity 1
 C        -2.956008        -1.505679         1.533325
 C        -1.683695        -0.630875         1.241682
 C        -1.961606         0.293542         0.142167
 C        -0.776362         1.256869        -0.121410
 C         0.326341         0.016369         0.035912
 O         1.491329         0.074843         0.090231
 C        -0.660929        -1.178644         0.125647
 C        -0.190003        -2.623519        -0.008076
 O        -1.625087        -0.863894        -0.895709
 H        -2.777874        -2.290390         2.272059
 H        -3.707164        -0.903228         2.026614
 H        -3.251420        -1.933440         0.593242
 H        -1.260465        -0.086220         2.141787
 H        -3.026720         0.601198        -0.154453
 H        -0.693956         1.690349        -1.098578
 H        -0.707194         2.001259         0.694161
 H         0.768596        -2.884434         0.364579
 H        -0.899434        -3.337310         0.483335
 H        -0.242033        -2.808452        -1.097354
