19
Iteration:  2010
 C        -2.802410        -1.534775         1.577265
 C        -1.565199        -0.668409         1.210404
 C        -1.986492         0.351862         0.005297
 C        -0.804764         1.157434        -0.075764
 C         0.367556         0.028664        -0.030209
 O         1.554057         0.183991         0.185088
 C        -0.670264        -1.178148         0.091458
 C        -0.349196        -2.739790        -0.068935
 O        -1.796292        -0.770474        -0.838104
 H        -3.257858        -1.021520         2.434711
 H        -3.483782        -1.849793         0.771787
 H        -2.469460        -2.463670         2.102272
 H        -1.163360        -0.204889         2.126497
 H        -2.986598         0.900436        -0.121738
 H        -0.526144         1.637569        -1.077282
 H        -0.531237         1.784808         0.802406
 H        -0.175397        -3.235847         0.870868
 H        -1.123127        -3.248507        -0.581947
 H         0.550933        -2.947719        -0.665602
