19
Iteration:  3919charge 0 multiplicity 1
 C        -2.717738        -1.561655         1.575245
 C        -1.697626        -0.558345         1.192245
 C        -2.044332         0.320571        -0.068293
 C        -0.713360         1.251565        -0.070628
 C         0.241945        -0.004291         0.153010
 O         1.501621        -0.078366         0.198947
 C        -0.742470        -1.188254         0.077256
 C        -0.232729        -2.566778         0.035583
 O        -1.697914        -0.773996        -1.040327
 H        -2.873677        -2.471741         0.970576
 H        -2.255435        -1.959047         2.542970
 H        -3.643994        -1.020436         1.962542
 H        -1.258000         0.120112         2.105844
 H        -3.039676         0.738951        -0.153591
 H        -0.681610         1.938129        -0.913308
 H        -0.562125         1.812338         0.820087
 H         0.398266        -2.811017         0.910247
 H        -1.038637        -3.330230         0.139677
 H         0.198098        -2.734352        -0.936423
