19
Iteration:  4129charge 0 multiplicity 1
 C        -2.944793        -1.562443         1.628908
 C        -1.695592        -0.620562         1.205464
 C        -1.995254         0.373388         0.104473
 C        -0.674516         1.233965        -0.148366
 C         0.207603        -0.007516        -0.035574
 O         1.451134         0.029284         0.123814
 C        -0.688251        -1.222058         0.126930
 C        -0.141465        -2.630739         0.052959
 O        -1.626556        -0.734309        -0.954143
 H        -3.488403        -1.936979         0.667271
 H        -2.797679        -2.600586         2.141739
 H        -3.669487        -0.854122         2.186594
 H        -1.198376        -0.330757         2.164210
 H        -3.009632         0.863502        -0.033381
 H        -0.634538         1.539677        -1.173584
 H        -0.139438         1.805036         0.646674
 H         0.352084        -2.930604         0.998585
 H        -0.886202        -3.421452        -0.100853
 H         0.692910        -2.655191        -0.705139
