19
Iteration:  2459
 C        -2.832148        -1.724594         1.578566
 C        -1.802883        -0.657013         1.209220
 C        -2.042180         0.418407        -0.082019
 C        -0.635851         1.247269        -0.133226
 C         0.246840         0.052321         0.089695
 O         1.451197        -0.112862         0.030238
 C        -0.824057        -1.177636         0.200834
 C        -0.138628        -2.528040         0.251669
 O        -1.590732        -0.662257        -0.994071
 H        -3.468924        -1.908564         0.722924
 H        -2.311373        -2.640908         1.785252
 H        -3.409156        -1.568861         2.480435
 H        -1.332541        -0.160699         2.032698
 H        -3.042323         0.835104        -0.448933
 H        -0.378603         1.778008        -1.021798
 H        -0.515355         2.082319         0.595525
 H         0.701859        -2.575627         0.951605
 H        -0.876323        -3.394701         0.326297
 H         0.435901        -2.649466        -0.657019
