19
Iteration:  4317
 C        -2.920309        -1.458709         1.522823
 C        -1.732762        -0.627875         1.230715
 C        -1.987185         0.352976         0.025713
 C        -0.653683         1.245507        -0.043562
 C         0.223134        -0.035191         0.053803
 O         1.478195        -0.012687         0.046282
 C        -0.712669        -1.252034         0.181220
 C        -0.092106        -2.581304         0.076219
 O        -1.731441        -0.807735        -0.977057
 H        -3.390486        -1.746798         0.578806
 H        -2.468090        -2.439364         1.737786
 H        -3.560874        -1.109126         2.288041
 H        -1.225925        -0.110612         2.091481
 H        -2.948742         0.827438        -0.105279
 H        -0.416419         1.853613        -0.879184
 H        -0.475605         1.695753         0.909903
 H         0.300600        -2.751950         1.090446
 H        -0.746597        -3.447006        -0.077072
 H         0.713222        -2.407057        -0.584647
