19
Iteration:  4471charge 0 multiplicity 1
 C        -2.997199        -1.527096         1.504466
 C        -1.798040        -0.631984         1.242242
 C        -1.923958         0.342294         0.042727
 C        -0.697813         1.129520        -0.173060
 C         0.295653         0.044111         0.030950
 O         1.516808         0.026001         0.166129
 C        -0.681117        -1.183965         0.180034
 C        -0.159137        -2.582944        -0.036636
 O        -1.647854        -0.792812        -0.850565
 H        -3.597840        -1.757214         0.658623
 H        -2.604331        -2.452466         1.840366
 H        -3.549620        -1.052106         2.235202
 H        -1.327178        -0.260591         2.158287
 H        -2.910904         0.809297        -0.114720
 H        -0.749303         1.708082        -1.106282
 H        -0.329733         1.999031         0.562358
 H         0.833008        -2.765643         0.395385
 H        -0.777684        -3.258539         0.629923
 H        -0.119923        -2.819224        -1.066106
