19
Iteration:   349charge 0 multiplicity 1
 C        -2.749216        -1.515243         1.781844
 C        -1.751860        -0.513653         1.136538
 C        -2.109649         0.260530        -0.191935
 C        -0.799397         1.128257        -0.076666
 C         0.250384        -0.013032         0.048920
 O         1.438614        -0.061662         0.318998
 C        -0.647845        -1.129603         0.009840
 C        -0.121797        -2.462994         0.086825
 O        -1.647841        -0.857110        -1.060842
 H        -2.229670        -2.411855         2.178012
 H        -3.377495        -1.051690         2.602327
 H        -3.383285        -1.798652         0.932132
 H        -1.300423         0.121246         1.919846
 H        -3.031931         0.499447        -0.521756
 H        -0.453783         1.823839        -1.011312
 H        -0.725258         1.746276         0.805627
 H         0.660248        -2.532511         0.835817
 H        -0.897876        -3.240514         0.125973
 H         0.462907        -2.550935        -0.817681
