19
Iteration:  2836
 C        -2.910391        -1.435176         1.597598
 C        -1.744138        -0.626991         1.187029
 C        -1.938510         0.299100        -0.115603
 C        -0.780724         1.183063        -0.025951
 C         0.214607         0.010041         0.033014
 O         1.444129        -0.037439         0.164636
 C        -0.684088        -1.218867         0.136705
 C        -0.087694        -2.567361         0.041477
 O        -1.603428        -0.821170        -0.933883
 H        -3.647730        -1.532985         0.779832
 H        -2.613847        -2.381201         2.098072
 H        -3.384802        -0.761314         2.330663
 H        -1.346176         0.030110         1.998135
 H        -2.944386         0.710834        -0.361572
 H        -0.521890         1.903632        -0.867428
 H        -0.698223         1.858960         0.812538
 H         0.459540        -2.780309         1.022259
 H        -0.933466        -3.382222        -0.118368
 H         0.580466        -2.699667        -0.912071
