19
Iteration:  1477charge 0 multiplicity 1
 C        -2.999536        -1.567893         1.637598
 C        -1.684641        -0.773758         1.239153
 C        -1.920295         0.347511         0.017615
 C        -0.708778         1.173344        -0.175444
 C         0.307561         0.040877         0.011197
 O         1.557859         0.266478         0.031306
 C        -0.686076        -1.219111         0.209143
 C        -0.320572        -2.696110         0.041954
 O        -1.620294        -0.752392        -0.919824
 H        -2.431521        -2.517898         1.845482
 H        -3.530171        -1.088990         2.485069
 H        -3.673774        -1.883213         0.822125
 H        -1.259515        -0.379864         2.137935
 H        -2.910674         0.691628         0.077027
 H        -0.459686         1.577359        -1.263417
 H        -0.485763         1.898086         0.672044
 H        -0.111883        -3.013571         1.047545
 H        -1.307403        -3.156767        -0.177633
 H         0.552254        -3.037921        -0.483584
