19
Iteration:  1036
 C        -2.908219        -1.608248         1.727897
 C        -1.830729        -0.563549         1.151884
 C        -2.058972         0.351575        -0.096281
 C        -0.733829         1.164146        -0.087906
 C         0.292325        -0.070028         0.108648
 O         1.510927        -0.017601         0.145629
 C        -0.703131        -1.164321         0.117068
 C        -0.104459        -2.576830         0.059642
 O        -1.611827        -0.704608        -1.020773
 H        -2.414208        -2.542867         2.108752
 H        -3.560817        -1.114542         2.476218
 H        -3.487346        -1.915093         0.846541
 H        -1.237953        -0.116921         2.002714
 H        -2.986619         0.782283        -0.349938
 H        -0.630345         1.846913        -0.989667
 H        -0.634284         1.797875         0.741781
 H         0.942989        -2.414006         0.051067
 H        -0.344091        -3.146646         0.972788
 H        -0.241674        -3.052837        -0.906828
