19
Iteration:  2321charge 0 multiplicity 1
 C        -2.755971        -1.609393         1.620245
 C        -1.706940        -0.623011         1.125893
 C        -2.002324         0.301630        -0.006942
 C        -0.738075         1.270104        -0.090693
 C         0.253107         0.020911         0.045639
 O         1.472653        -0.118865         0.174225
 C        -0.719916        -1.110387         0.097708
 C        -0.191763        -2.579167         0.144866
 O        -1.743014        -0.688197        -1.036388
 H        -2.320983        -2.631985         1.313600
 H        -2.777905        -1.685640         2.705737
 H        -3.731648        -1.465727         1.061073
 H        -1.195693        -0.017555         1.959645
 H        -2.928465         0.726552        -0.116733
 H        -0.642800         1.740276        -1.112963
 H        -0.477511         1.858528         0.762235
 H         0.313479        -2.646757         1.126577
 H        -0.995865        -3.339064         0.089603
 H         0.646927        -2.711301        -0.514260
