19
Iteration:  4331charge 0 multiplicity 1
 C        -2.864735        -1.504472         1.471081
 C        -1.701625        -0.564416         1.148096
 C        -1.948293         0.322672        -0.045418
 C        -0.707568         1.138372         0.051119
 C         0.292222         0.043480         0.103583
 O         1.539475         0.020328        -0.002072
 C        -0.732220        -1.196678         0.124551
 C        -0.124285        -2.641820         0.141002
 O        -1.777031        -0.786599        -0.881948
 H        -3.577291        -1.692930         0.599328
 H        -2.668143        -2.532918         1.967580
 H        -3.585949        -0.918631         2.222829
 H        -1.294376        -0.169808         2.109784
 H        -2.910593         0.825895        -0.166786
 H        -0.595050         1.814437        -0.886074
 H        -0.850001         1.888967         0.808040
 H         0.153268        -3.103642         1.121060
 H        -0.918334        -3.384230        -0.293413
 H         0.717069        -2.670903        -0.543682
