19
Iteration:  4034
 C        -3.027239        -1.602654         1.559657
 C        -1.764458        -0.697491         1.140425
 C        -1.982093         0.339358         0.045041
 C        -0.644337         1.171001        -0.030344
 C         0.292972         0.077895         0.105331
 O         1.535465        -0.106792        -0.037672
 C        -0.781918        -1.109952         0.130681
 C        -0.061507        -2.495839         0.125987
 O        -1.666836        -0.706589        -0.946386
 H        -3.672987        -2.119315         0.802311
 H        -2.639294        -2.521964         2.066196
 H        -3.706595        -1.249915         2.306404
 H        -1.275016        -0.198120         2.147033
 H        -2.891366         1.004290        -0.155622
 H        -0.650923         1.564112        -1.082432
 H        -0.531400         1.990507         0.743342
 H         0.510329        -2.542844         1.100813
 H        -0.736678        -3.314160         0.371538
 H         0.548631        -2.823565        -0.759191
