19
Iteration:  2025charge 0 multiplicity 1
 C        -2.719840        -1.532064         1.631511
 C        -1.657324        -0.628543         1.207547
 C        -1.991986         0.287427         0.121978
 C        -0.673864         1.223972        -0.081174
 C         0.264209         0.002911         0.009367
 O         1.492174         0.160234         0.138314
 C        -0.698215        -1.285100         0.111927
 C        -0.344675        -2.707402        -0.039220
 O        -1.711627        -0.734767        -0.970573
 H        -3.628397        -0.968545         1.993425
 H        -3.055211        -2.037775         0.652460
 H        -2.500007        -2.335856         2.349274
 H        -1.055512        -0.228024         1.998383
 H        -2.928169         0.684979         0.082441
 H        -0.820856         1.829052        -0.911876
 H        -0.546351         1.970525         0.708026
 H        -0.213288        -3.255526         0.939483
 H        -1.236284        -3.112863        -0.603757
 H         0.586640        -2.721815        -0.708554
