19
Iteration:  1757charge 0 multiplicity 1
 C        -2.809388        -1.515116         1.616650
 C        -1.664132        -0.597595         1.229592
 C        -2.004669         0.320709        -0.049422
 C        -0.805652         1.123474        -0.120777
 C         0.288214         0.074389        -0.013916
 O         1.541233         0.130714         0.108403
 C        -0.615002        -1.186640         0.257581
 C        -0.358797        -2.676768        -0.076685
 O        -1.623764        -0.831038        -0.824101
 H        -2.866465        -1.994403         2.641529
 H        -3.781292        -0.995464         1.556374
 H        -2.935578        -2.377257         0.961585
 H        -1.065656        -0.300953         2.076130
 H        -3.052771         0.784908        -0.301334
 H        -0.522040         1.740429        -1.068587
 H        -0.691845         1.911861         0.657933
 H        -0.128025        -3.276964         0.860913
 H        -1.294095        -3.026614        -0.604911
 H         0.527299        -2.804465        -0.713576
