19
Iteration:   902charge 0 multiplicity 1
 C        -2.883975        -1.553738         1.682555
 C        -1.759761        -0.680840         1.130218
 C        -1.970821         0.336478        -0.069459
 C        -0.701624         1.217910        -0.027729
 C         0.211687        -0.033874         0.082663
 O         1.402141        -0.011128         0.063140
 C        -0.783147        -1.204486         0.069503
 C        -0.102617        -2.522460         0.135379
 O        -1.568194        -0.736186        -0.980273
 H        -2.540833        -2.365191         2.355629
 H        -3.636255        -0.942018         2.270874
 H        -3.318950        -2.148853         0.807405
 H        -1.134678        -0.200189         1.968410
 H        -2.969337         0.788597        -0.133905
 H        -0.555597         1.687870        -0.930171
 H        -0.568635         1.989635         0.823270
 H         0.412062        -2.838631         1.076097
 H        -0.607498        -3.389880        -0.248108
 H         0.683280        -2.371434        -0.633850
