19
Iteration:  2447
 C        -2.854062        -1.725176         1.560441
 C        -1.849668        -0.575435         1.158449
 C        -1.948449         0.358795        -0.075269
 C        -0.687455         1.198347        -0.051954
 C         0.293840        -0.054604         0.064809
 O         1.467430        -0.041879        -0.003720
 C        -0.690484        -1.113380         0.254141
 C        -0.174856        -2.484979         0.199336
 O        -1.637073        -0.724455        -0.986930
 H        -3.409804        -2.016603         0.672552
 H        -2.385842        -2.644459         1.985519
 H        -3.594701        -1.256628         2.217443
 H        -1.529134        -0.083885         2.094117
 H        -2.879374         1.023370        -0.304930
 H        -0.688946         1.670235        -0.979108
 H        -0.519865         1.781391         0.877930
 H         0.549471        -2.498823         1.028709
 H        -0.904443        -3.321691         0.481622
 H         0.240315        -2.672289        -0.824146
