19
Iteration:   570charge 0 multiplicity 1
 C        -2.923855        -1.549609         1.385052
 C        -1.632744        -0.617247         1.326601
 C        -1.965301         0.286155         0.115619
 C        -0.698812         1.072416        -0.152812
 C         0.255563         0.006789        -0.039151
 O         1.466257         0.223047         0.047956
 C        -0.704558        -1.141438         0.177627
 C        -0.219360        -2.649968         0.204090
 O        -1.658379        -0.834673        -0.893302
 H        -3.179014        -2.035694         2.380914
 H        -3.727816        -0.866908         1.030747
 H        -2.751074        -2.284122         0.539908
 H        -1.059499        -0.161602         2.164533
 H        -2.794733         0.900036        -0.089897
 H        -0.750450         1.460530        -1.187504
 H        -0.378215         1.835400         0.560927
 H        -0.042189        -2.942776         1.233866
 H        -1.032873        -3.278942        -0.168354
 H         0.687382        -2.759865        -0.414553
