19
Iteration:  3014
 C        -2.826373        -1.502447         1.537815
 C        -1.746479        -0.508734         1.154419
 C        -1.961499         0.342375        -0.088635
 C        -0.739221         1.156722        -0.058575
 C         0.290172         0.031867         0.017254
 O         1.480215        -0.017096         0.211704
 C        -0.662068        -1.197033         0.125293
 C        -0.116390        -2.614162         0.138333
 O        -1.787490        -0.848008        -0.970302
 H        -3.480220        -1.774306         0.710836
 H        -2.510579        -2.463165         1.933878
 H        -3.480988        -1.125979         2.324123
 H        -1.221876        -0.019171         2.004910
 H        -2.871871         0.861602        -0.232694
 H        -0.566138         1.521365        -1.020477
 H        -0.651030         1.956589         0.684257
 H         0.275422        -2.883577         1.177020
 H        -0.997281        -3.239599        -0.142691
 H         0.788129        -2.536756        -0.488144
