19
Iteration:   915
 C        -2.881802        -1.502140         1.665829
 C        -1.724215        -0.585131         1.202461
 C        -1.986847         0.275775        -0.056035
 C        -0.807711         1.216281        -0.008062
 C         0.236209         0.063822         0.058637
 O         1.423480        -0.048178         0.096937
 C        -0.642122        -1.186687         0.162314
 C        -0.113943        -2.625717        -0.026635
 O        -1.576222        -0.779101        -1.001320
 H        -2.471940        -2.177452         2.439167
 H        -3.768747        -0.960459         2.070142
 H        -3.315391        -2.100875         0.810997
 H        -1.358129         0.002804         2.090199
 H        -2.888501         0.639869        -0.432157
 H        -0.607019         1.929045        -0.817323
 H        -0.858935         1.772335         0.892202
 H         0.351040        -2.730049         0.947785
 H        -1.018174        -3.242786        -0.012996
 H         0.655973        -2.811594        -0.779673
