19
Iteration:  3247charge 0 multiplicity 1
 C        -2.878852        -1.513981         1.594040
 C        -1.840880        -0.591365         1.148641
 C        -1.947826         0.307597        -0.082772
 C        -0.647179         1.186798         0.016512
 C         0.204110         0.053166         0.142319
 O         1.454932        -0.050730         0.043693
 C        -0.696103        -1.199934         0.158949
 C        -0.123001        -2.525574         0.108166
 O        -1.640802        -0.834591        -1.018482
 H        -3.124678        -2.262786         0.832294
 H        -2.625232        -1.971151         2.554729
 H        -3.805106        -0.925280         1.801750
 H        -1.498128        -0.310644         2.191570
 H        -2.941810         0.876717        -0.388883
 H        -0.423431         1.874149        -0.764010
 H        -0.673112         1.733841         0.941794
 H         1.011014        -2.457110         0.374571
 H        -0.549184        -3.362811         0.755808
 H        -0.013484        -2.673769        -1.014531
