19
Iteration:   999
 C        -2.770238        -1.596872         1.484597
 C        -1.635294        -0.611154         1.208861
 C        -2.016288         0.339486         0.035818
 C        -0.701757         1.226545        -0.196868
 C         0.260443         0.021865         0.047335
 O         1.450558        -0.103094         0.275666
 C        -0.723337        -1.115350         0.032728
 C        -0.140121        -2.449142         0.109385
 O        -1.792207        -0.842155        -0.910094
 H        -2.504012        -2.545823         1.952351
 H        -3.585287        -1.148191         2.082901
 H        -3.170696        -1.715836         0.452463
 H        -1.143116        -0.036244         2.001029
 H        -3.023792         0.703563        -0.284271
 H        -0.519449         1.669093        -1.132450
 H        -0.605632         1.982630         0.728898
 H         0.971322        -2.460958         0.287329
 H        -0.530754        -3.105221         0.875180
 H        -0.479609        -3.046352        -0.743572
