19
Iteration:  3524
 C        -2.931677        -1.590867         1.613191
 C        -1.761134        -0.598973         1.106461
 C        -1.915022         0.376072        -0.095036
 C        -0.703610         1.221965         0.028513
 C         0.251562         0.061664         0.105067
 O         1.498952        -0.070079         0.047484
 C        -0.723541        -1.212952         0.147781
 C        -0.147155        -2.540441         0.161035
 O        -1.679255        -0.779712        -0.991693
 H        -3.491154        -2.056846         0.769128
 H        -2.411871        -2.474530         2.022024
 H        -3.530624        -1.091368         2.347508
 H        -1.510222        -0.103710         2.093763
 H        -2.789068         0.936110        -0.355963
 H        -0.572944         1.624329        -1.008782
 H        -0.517439         1.907525         0.820544
 H         0.956118        -2.484846         0.398955
 H        -0.665111        -3.313067         0.803462
 H        -0.189118        -2.983537        -0.866419
