19
Iteration:   864
 C        -2.898119        -1.668886         1.454697
 C        -1.741034        -0.609958         1.232767
 C        -2.019294         0.341687         0.020545
 C        -0.717867         1.276282        -0.120034
 C         0.314569         0.027807        -0.059037
 O         1.524359        -0.056160         0.048142
 C        -0.741826        -1.127410         0.155630
 C        -0.059142        -2.588768         0.259328
 O        -1.743045        -0.739329        -0.876488
 H        -2.515219        -2.643818         1.755303
 H        -3.565482        -1.302268         2.208871
 H        -3.559531        -1.626260         0.639919
 H        -1.205261        -0.344450         2.121576
 H        -3.017211         0.696874        -0.346052
 H        -0.859959         1.821205        -1.161697
 H        -0.489633         2.020178         0.638921
 H        -0.000993        -2.910527         1.295650
 H        -0.675208        -3.292774        -0.367296
 H         0.967658        -2.537009        -0.133026
