19
Iteration:  2061charge 0 multiplicity 1
 C        -2.817786        -1.656849         1.713156
 C        -1.826674        -0.697393         1.180756
 C        -2.056486         0.318527         0.050430
 C        -0.686298         1.275517        -0.028327
 C         0.316578         0.031210         0.042157
 O         1.563079        -0.145949         0.000867
 C        -0.764961        -1.103583         0.189889
 C        -0.147884        -2.526151        -0.030140
 O        -1.699632        -0.648166        -1.001170
 H        -3.894726        -1.411635         1.686426
 H        -2.722483        -2.585840         1.200405
 H        -2.575194        -1.867943         2.768630
 H        -1.390359        -0.095056         2.024486
 H        -3.019582         0.962552         0.027923
 H        -0.540867         1.786242        -1.017102
 H        -0.652914         1.916501         0.839341
 H         0.319392        -2.899792         0.917595
 H        -0.923420        -3.272230        -0.373893
 H         0.615021        -2.560562        -0.765821
