19
Iteration:  4955
 C        -2.995132        -1.608892         1.476011
 C        -1.794412        -0.694749         1.133547
 C        -1.949652         0.386037         0.038785
 C        -0.684913         1.221929         0.122063
 C         0.279342         0.023001        -0.012372
 O         1.520704        -0.052478        -0.107193
 C        -0.685139        -1.191017         0.172057
 C        -0.157200        -2.573374         0.337792
 O        -1.623325        -0.693764        -1.023655
 H        -3.660592        -1.820592         0.571726
 H        -2.831498        -2.684970         1.896644
 H        -3.646311        -1.223685         2.338996
 H        -1.330025        -0.146980         2.034711
 H        -2.866659         0.778607        -0.367834
 H        -0.570580         1.971127        -0.653413
 H        -0.482106         1.911053         0.897537
 H         0.901746        -2.461573         0.643204
 H        -0.770674        -3.187595         0.889778
 H        -0.024196        -2.989513        -0.658134
