19
Iteration:  1509
 C        -2.889969        -1.453186         1.530626
 C        -1.638477        -0.627071         1.223886
 C        -2.005778         0.258445         0.002251
 C        -0.778368         1.181392        -0.038440
 C         0.301661         0.012479         0.011190
 O         1.529879         0.117955         0.036184
 C        -0.678345        -1.238622         0.161785
 C        -0.198734        -2.658838         0.049423
 O        -1.705509        -0.775849        -0.880250
 H        -2.552076        -2.472818         1.914567
 H        -3.520743        -1.101190         2.378604
 H        -3.452096        -1.633962         0.590803
 H        -1.215764        -0.128407         2.118665
 H        -2.970165         0.657366        -0.115668
 H        -0.529062         1.670491        -1.079470
 H        -0.770390         1.843005         0.864478
 H         0.117497        -2.818389         1.095553
 H        -1.042031        -3.373946        -0.181739
 H         0.631991        -2.846051        -0.646267
