19
Iteration:  1358charge 0 multiplicity 1
 C        -2.876416        -1.451181         1.507531
 C        -1.709978        -0.632252         1.236615
 C        -1.951293         0.268934        -0.034723
 C        -0.768786         1.102932        -0.062586
 C         0.300384         0.081135         0.024392
 O         1.529108         0.160336         0.089573
 C        -0.627826        -1.243607         0.194132
 C        -0.260797        -2.659287        -0.046033
 O        -1.645165        -0.851878        -0.795991
 H        -2.611955        -2.401173         1.980983
 H        -3.609370        -0.840551         2.015966
 H        -3.454490        -1.679771         0.607057
 H        -1.420352        -0.103718         2.184589
 H        -2.922741         0.849561        -0.054581
 H        -0.836800         1.780867        -0.973690
 H        -0.711170         1.810670         0.785863
 H         0.727039        -2.805245         0.313059
 H        -1.039760        -3.284296         0.447417
 H        -0.288994        -2.901694        -1.105545
