19
Iteration:  1826charge 0 multiplicity 1
 C        -2.875993        -1.536079         1.596648
 C        -1.733232        -0.656357         1.251993
 C        -2.010268         0.388717         0.049999
 C        -0.703175         1.183050        -0.003630
 C         0.217887        -0.014706         0.028871
 O         1.386928        -0.145864        -0.003181
 C        -0.734596        -1.129439         0.046727
 C        -0.045573        -2.453333         0.154320
 O        -1.633294        -0.793522        -0.974386
 H        -2.444994        -2.565821         1.660821
 H        -3.503751        -1.311015         2.498816
 H        -3.461686        -1.674851         0.639275
 H        -1.293003        -0.041545         2.071773
 H        -2.876067         0.883492        -0.240085
 H        -0.564560         1.639126        -0.993564
 H        -0.598780         1.927407         0.766160
 H         0.854755        -2.178667         0.785480
 H        -0.670551        -3.295464         0.579938
 H         0.342131        -2.779584        -0.905021
