19
Iteration:  3163
 C        -2.986595        -1.529725         1.429590
 C        -1.812063        -0.566955         1.224871
 C        -1.940305         0.325777        -0.042639
 C        -0.707583         1.184735        -0.085060
 C         0.336044        -0.004563         0.037683
 O         1.509741         0.029298         0.037734
 C        -0.629648        -1.208201         0.266698
 C        -0.100914        -2.602669         0.148684
 O        -1.698175        -0.805822        -0.871307
 H        -3.577174        -1.780306         0.545234
 H        -2.644554        -2.484499         1.920481
 H        -3.804335        -1.161877         2.049429
 H        -1.221611        -0.262666         2.080892
 H        -2.903631         0.744227        -0.327225
 H        -0.906207         1.840500        -1.064233
 H        -0.491617         1.968759         0.821484
 H         0.896009        -2.504180         0.393291
 H        -0.716542        -3.290434         0.733400
 H        -0.289345        -2.865548        -0.845808
