19
Iteration:  1032charge 0 multiplicity 1
 C        -2.864660        -1.607082         1.695875
 C        -1.850466        -0.559364         1.145003
 C        -2.011129         0.356177        -0.064295
 C        -0.721655         1.182064        -0.117159
 C         0.293508        -0.081256         0.103772
 O         1.482279        -0.029553         0.160929
 C        -0.733844        -1.158394         0.113376
 C        -0.088896        -2.579486         0.076846
 O        -1.659175        -0.721390        -0.999922
 H        -2.279008        -2.454594         2.012073
 H        -3.492964        -1.069208         2.424464
 H        -3.479271        -1.832251         0.794316
 H        -1.288239        -0.045580         1.922674
 H        -2.955461         0.759147        -0.530757
 H        -0.632691         1.864447        -0.904248
 H        -0.684582         1.791349         0.965789
 H         1.042539        -2.409271        -0.021274
 H        -0.288301        -3.191091         0.951403
 H        -0.162647        -3.069989        -0.906758
