19
Iteration:   647
 C        -2.822113        -1.558722         1.851048
 C        -1.782476        -0.625245         1.106009
 C        -1.980422         0.374241        -0.185906
 C        -0.777071         1.277327        -0.172036
 C         0.233620         0.003930         0.119418
 O         1.419920         0.024843         0.279680
 C        -0.756369        -1.166655         0.099434
 C        -0.081031        -2.706583         0.071357
 O        -1.599654        -0.794989        -1.059283
 H        -2.364152        -2.574734         2.151318
 H        -3.165648        -0.987391         2.738487
 H        -3.633109        -1.806486         1.114165
 H        -1.256527         0.038019         1.852162
 H        -2.959027         0.784425        -0.500303
 H        -0.455349         1.528275        -1.134167
 H        -0.757349         2.154238         0.484950
 H         0.616167        -2.776196         0.874860
 H        -0.787953        -3.549516        -0.123531
 H         0.452924        -2.706633        -0.929221
