19
Iteration:  1971
 C        -2.797486        -1.566640         1.651280
 C        -1.690684        -0.641580         1.215271
 C        -2.045448         0.399699         0.040183
 C        -0.718846         1.137672        -0.197944
 C         0.236009        -0.007564        -0.006698
 O         1.437546        -0.056769         0.167815
 C        -0.695027        -1.214951         0.190195
 C        -0.151727        -2.560629        -0.046251
 O        -1.679580        -0.673961        -0.917586
 H        -2.867421        -1.502866         2.749818
 H        -3.811793        -1.231784         1.306977
 H        -2.538763        -2.572018         1.343953
 H        -1.128444        -0.340220         2.114355
 H        -2.954941         0.918989        -0.027945
 H        -0.674493         1.546872        -1.149236
 H        -0.739960         1.977669         0.523328
 H         0.399299        -2.912218         0.878870
 H        -0.920015        -3.323107        -0.343644
 H         0.692206        -2.459941        -0.825460
