19
Iteration:   951
 C        -2.908143        -1.556242         1.571000
 C        -1.723568        -0.660779         1.271994
 C        -1.901406         0.289530        -0.053556
 C        -0.671883         1.152217        -0.117880
 C         0.293530         0.043213         0.099242
 O         1.492134         0.207682         0.153869
 C        -0.714862        -1.192470         0.179100
 C        -0.296714        -2.617626        -0.076334
 O        -1.640302        -0.839718        -0.905843
 H        -2.659853        -2.074466         2.514534
 H        -3.759659        -0.945517         1.838895
 H        -3.159850        -2.261902         0.793247
 H        -1.193009        -0.306907         2.142669
 H        -2.875445         0.821228        -0.207749
 H        -0.572380         1.577863        -1.212722
 H        -0.606680         1.920782         0.605770
 H         0.609710        -2.723725         0.505972
 H        -0.933577        -3.410365         0.389806
 H        -0.170514        -3.011655        -1.092497
