19
Iteration:  4277charge 0 multiplicity 1
 C        -2.914007        -1.574776         1.600278
 C        -1.766549        -0.648815         1.190412
 C        -2.058472         0.364802         0.012420
 C        -0.679557         1.231624        -0.112891
 C         0.301698         0.030852         0.150728
 O         1.584004        -0.109478         0.098853
 C        -0.745529        -1.153040         0.205454
 C        -0.107546        -2.564144         0.040329
 O        -1.697097        -0.712263        -1.010766
 H        -3.370588        -1.940400         0.649317
 H        -2.598323        -2.381068         2.325807
 H        -3.799750        -1.008207         2.174790
 H        -1.253336        -0.323907         2.111321
 H        -3.097540         0.693961        -0.054860
 H        -0.747751         1.551649        -1.225889
 H        -0.596929         2.172745         0.424555
 H         0.849159        -2.588638         0.567196
 H        -0.881871        -3.371346         0.253901
 H         0.177973        -2.932934        -0.949531
