19
Iteration:   464charge 0 multiplicity 1
 C        -2.971190        -1.579741         1.560162
 C        -1.794805        -0.767130         1.187668
 C        -2.023937         0.353445         0.048723
 C        -0.742994         1.154229        -0.134283
 C         0.293735        -0.023595         0.041396
 O         1.504970         0.087724         0.030041
 C        -0.717400        -1.175555         0.151182
 C        -0.109382        -2.534680         0.251397
 O        -1.552057        -0.739141        -1.006989
 H        -2.917728        -2.491825         2.141996
 H        -3.611154        -0.936578         2.149319
 H        -3.617146        -1.873176         0.744670
 H        -1.325884        -0.373489         2.099447
 H        -3.000177         0.927996        -0.286023
 H        -0.635108         1.592960        -1.078520
 H        -0.451471         2.040818         0.575899
 H         0.830631        -2.420181         0.798559
 H        -0.762987        -3.331447         0.676956
 H         0.268405        -2.874258        -0.745898
