19
Iteration:  2598charge 0 multiplicity 1
 C        -2.745202        -1.614459         1.488657
 C        -1.755865        -0.516157         1.202918
 C        -2.051174         0.453329        -0.055272
 C        -0.684934         1.127332         0.012900
 C         0.258598        -0.078177         0.031979
 O         1.452100        -0.104312         0.143107
 C        -0.780554        -1.162676         0.091630
 C        -0.125922        -2.491296         0.177613
 O        -1.697009        -0.774514        -1.000394
 H        -2.734839        -2.514152         0.813668
 H        -2.616933        -2.157351         2.480936
 H        -3.827864        -1.358383         1.622660
 H        -1.272470         0.100234         2.052588
 H        -3.004970         0.953317        -0.445352
 H        -0.515799         1.812182        -0.835920
 H        -0.527082         1.837739         0.914516
 H         0.770692        -2.255291         0.679045
 H        -0.829337        -3.285112         0.553529
 H         0.320230        -2.729281        -0.801926
