19
Iteration:  4941charge 0 multiplicity 1
 C        -3.002092        -1.564700         1.467036
 C        -1.782574        -0.644391         1.177892
 C        -1.958532         0.330031         0.024988
 C        -0.692666         1.189343         0.057675
 C         0.238791        -0.044696        -0.016802
 O         1.441968        -0.042903        -0.085236
 C        -0.748760        -1.190127         0.152513
 C        -0.104067        -2.573228         0.234635
 O        -1.508508        -0.658139        -0.947380
 H        -3.537854        -1.850926         0.574208
 H        -2.567564        -2.436734         2.058439
 H        -3.652484        -0.821660         1.980353
 H        -1.422639        -0.329158         2.198295
 H        -2.887947         0.927464         0.029027
 H        -0.683660         1.897093        -0.822381
 H        -0.604230         1.584247         1.111114
 H         0.822488        -2.397652         0.750343
 H        -0.688999        -3.221499         0.888930
 H         0.117529        -3.199443        -0.709302
