19
Iteration:  2194charge 0 multiplicity 1
 C        -2.857622        -1.641513         1.657454
 C        -1.738265        -0.631074         1.192891
 C        -1.993818         0.387357         0.037585
 C        -0.713931         1.230565         0.027164
 C         0.216241         0.025966        -0.035725
 O         1.464079        -0.172320         0.075039
 C        -0.698988        -1.103063         0.137834
 C        -0.129394        -2.511104         0.072812
 O        -1.693192        -0.726556        -1.057001
 H        -2.821692        -1.673164         2.727646
 H        -3.771366        -1.375797         1.150113
 H        -2.565069        -2.631769         1.339683
 H        -1.075730        -0.362322         2.072771
 H        -3.017992         1.025899        -0.106053
 H        -0.657596         1.893498        -0.906429
 H        -0.437233         1.958035         0.774960
 H         0.884735        -2.380751         0.506279
 H        -0.594535        -3.238340         0.743218
 H        -0.066532        -2.960682        -0.952797
