19
Iteration:  4562
 C        -2.809124        -1.546738         1.640404
 C        -1.708877        -0.538127         1.130815
 C        -2.056026         0.375484        -0.034722
 C        -0.654799         1.145021        -0.038563
 C         0.228337         0.007402         0.135023
 O         1.469573        -0.069903         0.195527
 C        -0.771332        -1.162599         0.081434
 C        -0.171814        -2.536527         0.008958
 O        -1.672879        -0.797064        -1.012624
 H        -3.060609        -2.345751         0.939444
 H        -2.417167        -2.109113         2.487394
 H        -3.739432        -1.080750         1.945069
 H        -1.070590        -0.163085         1.992716
 H        -2.972504         0.923158        -0.229332
 H        -0.563096         1.445942        -1.161207
 H        -0.379055         1.858282         0.811929
 H         0.402191        -2.796057         0.929163
 H        -0.958711        -3.266994        -0.150882
 H         0.558281        -2.560021        -0.845888
