19
Iteration:  4109charge 0 multiplicity 1
 C        -2.894050        -1.546161         1.564133
 C        -1.763290        -0.700403         1.221260
 C        -1.943101         0.313093         0.030290
 C        -0.684884         1.158672        -0.123165
 C         0.296142         0.021212         0.081209
 O         1.544979         0.124652         0.024720
 C        -0.696770        -1.198150         0.145916
 C        -0.287804        -2.645790         0.088575
 O        -1.662781        -0.694780        -0.905729
 H        -3.239768        -2.292226         0.846255
 H        -2.537042        -2.334999         2.195854
 H        -3.752129        -0.997468         1.958796
 H        -1.301535        -0.466029         2.143970
 H        -2.804149         1.014611        -0.142208
 H        -0.626719         1.505127        -1.103856
 H        -0.610140         1.945500         0.629990
 H         0.153357        -3.023009         1.006534
 H        -1.078754        -3.275972        -0.255080
 H         0.597886        -2.813114        -0.558647
