19
Iteration:  4551charge 0 multiplicity 1
 C        -2.788270        -1.607323         1.696583
 C        -1.765328        -0.654764         1.122275
 C        -1.911361         0.397889        -0.056140
 C        -0.698208         1.220651        -0.074283
 C         0.256285        -0.082893         0.052688
 O         1.416562        -0.039286         0.227208
 C        -0.709864        -1.203481         0.045827
 C        -0.196019        -2.585715         0.066115
 O        -1.693289        -0.670588        -1.012773
 H        -3.136355        -2.355840         0.992379
 H        -2.489834        -1.959242         2.674833
 H        -3.698706        -1.042419         1.956536
 H        -1.355673        -0.096323         2.034945
 H        -2.883800         0.862729        -0.211504
 H        -0.406150         1.714744        -1.096613
 H        -0.641556         2.133698         0.633212
 H         0.511830        -2.623095         0.907721
 H        -0.920097        -3.407423         0.025986
 H         0.425623        -2.721991        -0.862068
