19
Iteration:  4369charge 0 multiplicity 1
 C        -2.916001        -1.645901         1.555746
 C        -1.742265        -0.709219         1.259247
 C        -1.948238         0.352715         0.021322
 C        -0.670151         1.223175        -0.102146
 C         0.245350         0.040875         0.018217
 O         1.491854         0.050083        -0.032534
 C        -0.699059        -1.213452         0.269006
 C        -0.350382        -2.672432         0.150391
 O        -1.504703        -0.640007        -0.957637
 H        -3.131938        -2.151986         0.623321
 H        -2.578685        -2.264709         2.374499
 H        -3.743004        -1.070639         1.947053
 H        -1.279497        -0.211328         2.082836
 H        -2.787196         0.970420        -0.361117
 H        -0.879059         1.562014        -1.093793
 H        -0.675419         2.003117         0.744158
 H        -0.022504        -3.078318         1.135582
 H        -1.084251        -3.128790        -0.458726
 H         0.591507        -2.734801        -0.488479
