19
Iteration:  4728
 C        -2.960604        -1.452472         1.449787
 C        -1.745127        -0.662607         1.196056
 C        -1.920322         0.272898         0.051931
 C        -0.722287         1.148826        -0.005667
 C         0.273836         0.023542        -0.001818
 O         1.530780         0.004904         0.087659
 C        -0.678614        -1.173229         0.123878
 C        -0.172596        -2.556466         0.096770
 O        -1.677641        -0.770761        -0.893008
 H        -3.085956        -2.229550         0.722296
 H        -2.905210        -1.999650         2.335349
 H        -3.864766        -0.889283         1.421492
 H        -1.196322        -0.303307         2.052212
 H        -2.866822         0.798127         0.001179
 H        -0.692608         1.637482        -1.022705
 H        -0.727191         1.691672         0.966577
 H         0.806097        -2.602752         0.632843
 H        -0.885439        -3.297622         0.494732
 H         0.108013        -2.795413        -0.924107
