19
Iteration:  3823charge 0 multiplicity 1
 C        -2.865678        -1.536267         1.493761
 C        -1.733016        -0.551574         1.209436
 C        -1.947431         0.302374        -0.002975
 C        -0.688447         1.196888        -0.071483
 C         0.269954         0.038639         0.089858
 O         1.516511         0.078682         0.084836
 C        -0.712784        -1.176771         0.153272
 C        -0.263437        -2.657410         0.019199
 O        -1.662033        -0.848741        -0.874317
 H        -3.480550        -1.673321         0.634882
 H        -2.536138        -2.469643         1.923792
 H        -3.307421        -0.991853         2.351274
 H        -1.218996        -0.268111         2.035776
 H        -2.926998         0.760062        -0.273457
 H        -0.642745         1.849863        -0.939371
 H        -0.751334         1.792183         0.853445
 H         0.414363        -2.822110         0.886894
 H        -0.965780        -3.522989         0.115397
 H         0.264360        -2.761049        -0.923892
