19
Iteration:   720
 C        -2.921013        -1.643894         1.497785
 C        -1.765684        -0.605513         1.210301
 C        -2.009379         0.361170         0.064387
 C        -0.679835         1.135890        -0.236646
 C         0.325295         0.013605         0.053409
 O         1.541690         0.101372         0.207027
 C        -0.729392        -1.210816         0.229505
 C        -0.133309        -2.574138         0.087785
 O        -1.709682        -0.756938        -0.930682
 H        -2.585471        -2.486030         2.051886
 H        -3.696476        -1.129955         2.058827
 H        -3.372520        -1.972540         0.571416
 H        -1.343121        -0.242982         2.147426
 H        -2.925567         0.836890        -0.065950
 H        -0.743426         1.173932        -1.463014
 H        -0.491962         2.113698         0.113446
 H         0.909013        -2.439580         0.449717
 H        -0.696288        -3.366949         0.578684
 H        -0.176697        -2.747636        -1.006797
