19
Iteration:   666
 C        -2.825671        -1.449059         1.683770
 C        -1.730877        -0.583121         1.141909
 C        -2.037514         0.213863        -0.094141
 C        -0.739462         1.105591        -0.167061
 C         0.301685         0.058769         0.063954
 O         1.486728         0.115473         0.344082
 C        -0.631282        -1.206109         0.007337
 C        -0.192979        -2.585136         0.040513
 O        -1.692666        -0.867611        -0.983069
 H        -2.476422        -2.468202         1.737830
 H        -3.106731        -1.106267         2.661016
 H        -3.652468        -1.475752         0.973802
 H        -1.238281        -0.110356         1.991907
 H        -2.966062         0.629740        -0.290391
 H        -0.712273         1.751501        -1.134207
 H        -0.726216         1.697544         0.682964
 H         0.562400        -2.527522         0.844911
 H        -1.052532        -3.182354         0.329360
 H         0.166584        -2.871898        -0.961869
