19
Iteration:  3646charge 0 multiplicity 1
 C        -2.730430        -1.605207         1.651609
 C        -1.760301        -0.533930         1.132717
 C        -1.991267         0.319823        -0.046451
 C        -0.762180         1.211786        -0.106953
 C         0.305742         0.017956         0.131208
 O         1.485657        -0.080977         0.179944
 C        -0.747236        -1.132661         0.102986
 C        -0.255289        -2.520606         0.112051
 O        -1.693778        -0.771176        -1.069842
 H        -3.410209        -1.794393         0.777990
 H        -2.148855        -2.519479         1.842257
 H        -3.330495        -1.251913         2.508065
 H        -1.126170        -0.122950         1.968473
 H        -2.936175         0.783228        -0.205216
 H        -0.679217         1.763537        -1.107112
 H        -0.375205         1.647400         0.775971
 H         0.159894        -2.813738         1.142798
 H        -0.978604        -3.312546        -0.029858
 H         0.668898        -2.866512        -0.440628
