19
Iteration:  3101
 C        -2.886284        -1.476681         1.655472
 C        -1.798516        -0.533437         1.117841
 C        -1.972798         0.269409        -0.117951
 C        -0.701044         1.210567        -0.061670
 C         0.262438        -0.001338         0.109308
 O         1.483164        -0.008633         0.177073
 C        -0.690730        -1.162843         0.100193
 C        -0.145855        -2.571176         0.037268
 O        -1.681129        -0.858174        -0.982783
 H        -3.146079        -2.229262         0.898239
 H        -2.454617        -2.012907         2.534279
 H        -3.724900        -0.859634         2.036474
 H        -1.364875        -0.075956         2.037012
 H        -2.945281         0.662965        -0.265342
 H        -0.511351         1.905331        -0.838014
 H        -0.517903         1.589138         0.861218
 H         0.456794        -2.793523         1.006309
 H        -0.863875        -3.451545        -0.005109
 H         0.657384        -2.719340        -0.739665
