19
Iteration:    35charge 0 multiplicity 1
 C        -2.931374        -1.598858         1.527650
 C        -1.706046        -0.580761         1.274707
 C        -1.910267         0.240545         0.008249
 C        -0.744150         1.123494        -0.235625
 C         0.325339         0.051068        -0.007141
 O         1.456788         0.173898         0.238981
 C        -0.617401        -1.163691         0.206738
 C        -0.165420        -2.589253         0.021423
 O        -1.720888        -0.847180        -0.877886
 H        -2.723715        -2.597103         1.875897
 H        -3.785210        -1.117647         2.012256
 H        -3.209861        -1.679676         0.471965
 H        -1.305716         0.014709         2.108428
 H        -2.846526         0.804700        -0.094522
 H        -0.694201         1.444632        -1.204913
 H        -0.594229         1.982392         0.482392
 H         0.808542        -2.925040         0.322192
 H        -0.946770        -3.225488         0.452922
 H        -0.253485        -2.755769        -1.019201
