19
Iteration:  2562charge 0 multiplicity 1
 C        -2.942776        -1.561900         1.687329
 C        -1.707582        -0.652698         1.184372
 C        -2.061883         0.335531         0.026364
 C        -0.688146         1.180904        -0.097189
 C         0.287705         0.024372         0.070858
 O         1.486863         0.042377         0.188197
 C        -0.657593        -1.157847         0.102013
 C        -0.227055        -2.566811        -0.000048
 O        -1.565237        -0.807848        -1.022429
 H        -3.185342        -2.311634         0.946871
 H        -2.713282        -1.968200         2.690963
 H        -3.765052        -0.849353         1.688503
 H        -1.246153        -0.319385         2.152313
 H        -2.991332         0.769696        -0.269450
 H        -0.686283         1.481930        -1.239144
 H        -0.573256         2.054886         0.586970
 H         0.285442        -2.959660         0.890781
 H        -1.043313        -3.240181        -0.122369
 H         0.374621        -2.667142        -0.934983
