19
Iteration:  3487charge 0 multiplicity 1
 C        -2.870165        -1.584133         1.423579
 C        -1.801662        -0.646033         1.188018
 C        -1.934416         0.316890         0.048031
 C        -0.692166         1.191135        -0.030253
 C         0.251900         0.006940         0.010768
 O         1.507517        -0.052950         0.007121
 C        -0.682981        -1.116149         0.210566
 C        -0.218392        -2.556686         0.241533
 O        -1.620902        -0.736195        -0.954370
 H        -3.534168        -1.674833         0.549756
 H        -2.367157        -2.545427         1.716585
 H        -3.561616        -1.388927         2.314542
 H        -1.468081        -0.003130         1.980242
 H        -2.826414         0.994286        -0.234555
 H        -0.845371         1.596470        -0.999578
 H        -0.731711         2.000171         0.723931
 H         0.854386        -2.602780         0.484100
 H        -0.757155        -3.202167         1.037416
 H        -0.340145        -2.931008        -0.800593
