19
Iteration:  2478
 C        -2.837660        -1.655105         1.555792
 C        -1.775540        -0.624560         1.139577
 C        -1.937191         0.379236         0.023783
 C        -0.748754         1.284691        -0.174894
 C         0.222585        -0.005985         0.097935
 O         1.414206        -0.149500         0.138869
 C        -0.691742        -1.124943         0.115595
 C        -0.114465        -2.532777         0.162228
 O        -1.632896        -0.703329        -0.974282
 H        -3.766030        -1.764527         0.958510
 H        -2.359848        -2.718105         1.610105
 H        -3.134212        -1.411477         2.606819
 H        -1.203415        -0.130973         2.011625
 H        -2.953701         0.871754        -0.167320
 H        -0.824524         1.533197        -1.231833
 H        -0.618576         2.193132         0.447992
 H         0.333419        -2.477310         1.179153
 H        -0.884929        -3.350646         0.207166
 H         0.730014        -2.785517        -0.573350
