19
Iteration:  4265
 C        -2.854462        -1.578672         1.566687
 C        -1.758535        -0.581323         1.211223
 C        -2.005253         0.383227        -0.003153
 C        -0.693096         1.195073        -0.060170
 C         0.317721        -0.003160         0.086291
 O         1.500025        -0.016579         0.132137
 C        -0.757056        -1.197332         0.102887
 C        -0.176401        -2.602574         0.025206
 O        -1.683241        -0.771470        -0.923160
 H        -3.181103        -2.123032         0.638785
 H        -2.577161        -2.368622         2.340277
 H        -3.776630        -0.964001         1.950989
 H        -1.287381        -0.029735         2.057314
 H        -2.886500         0.934545        -0.300497
 H        -0.422506         1.547143        -1.099661
 H        -0.482031         1.973185         0.642197
 H         0.815040        -2.672386         0.495371
 H        -0.799340        -3.376626         0.548963
 H        -0.119222        -2.734249        -1.036201
