19
Iteration:  4160charge 0 multiplicity 1
 C        -2.835343        -1.489891         1.563352
 C        -1.702019        -0.518389         1.115509
 C        -2.018559         0.295040        -0.028977
 C        -0.757535         1.207712        -0.029043
 C         0.276712        -0.022697         0.126434
 O         1.506363        -0.139091         0.160055
 C        -0.677038        -1.141114         0.124452
 C        -0.090573        -2.489385        -0.000081
 O        -1.804805        -0.865749        -0.922453
 H        -3.659651        -1.610799         0.753413
 H        -2.636276        -2.544165         1.975067
 H        -3.452828        -0.914941         2.347672
 H        -1.145761        -0.057403         2.098041
 H        -2.950514         0.874205        -0.090986
 H        -0.462538         1.609965        -1.094326
 H        -0.550180         2.037679         0.751890
 H         0.779571        -2.526140         0.688636
 H        -0.756693        -3.391829         0.023136
 H         0.484660        -2.542600        -0.986270
