19
Iteration:  1434
 C        -2.750938        -1.628690         1.575863
 C        -1.697480        -0.526766         1.178923
 C        -1.993800         0.311057        -0.081594
 C        -0.709396         1.255080        -0.046407
 C         0.223383         0.004514         0.064055
 O         1.454744        -0.128136         0.075588
 C        -0.709363        -1.150588         0.095636
 C        -0.159214        -2.506996         0.110915
 O        -1.733241        -0.768671        -0.899744
 H        -2.415219        -2.288063         2.395077
 H        -3.594759        -1.062989         2.009719
 H        -3.117903        -2.290340         0.795328
 H        -1.246403        -0.127950         2.060292
 H        -2.933022         0.772699        -0.326267
 H        -0.635055         1.958998        -0.912306
 H        -0.791783         1.667107         0.958371
 H         0.439910        -2.731105         0.942231
 H        -0.973718        -3.220535        -0.050963
 H         0.511172        -2.461736        -0.731707
