19
Iteration:   606charge 0 multiplicity 1
 C        -2.812761        -1.557757         1.727406
 C        -1.787560        -0.556868         1.169572
 C        -2.055733         0.294038        -0.130829
 C        -0.764543         1.203767        -0.105611
 C         0.287753         0.098878         0.083220
 O         1.526984        -0.071548         0.165283
 C        -0.687135        -1.182304         0.094983
 C        -0.145796        -2.542592         0.116490
 O        -1.661982        -0.833449        -1.025839
 H        -2.606818        -2.078737         2.678512
 H        -3.810503        -1.100101         1.874669
 H        -3.004157        -2.337882         0.975671
 H        -1.306768         0.036441         1.962086
 H        -3.033377         0.859475        -0.443904
 H        -0.658556         1.760380        -1.002600
 H        -0.857814         2.055048         0.748261
 H         0.217602        -2.914140         1.072261
 H        -0.752762        -3.353861        -0.366109
 H         0.792002        -2.575180        -0.470477
