19
Iteration:  1861charge 0 multiplicity 1
 C        -2.971175        -1.580358         1.467232
 C        -1.776164        -0.610417         1.295442
 C        -1.988272         0.308590         0.104636
 C        -0.685202         1.163458        -0.105097
 C         0.382353         0.083512        -0.031007
 O         1.554720         0.124746        -0.039635
 C        -0.650282        -1.198378         0.244714
 C        -0.231092        -2.614965         0.138863
 O        -1.665498        -0.829977        -0.892477
 H        -2.594365        -2.590665         1.335640
 H        -3.516821        -1.702488         2.438654
 H        -3.757070        -1.429220         0.701101
 H        -1.550258         0.006197         2.219405
 H        -2.859253         0.838481        -0.132887
 H        -0.828695         1.684908        -0.992509
 H        -0.474194         1.956578         0.638269
 H         0.832806        -2.911517         0.342461
 H        -0.858044        -3.314173         0.705222
 H        -0.347155        -2.906245        -0.992403
