19
Iteration:   141
 C        -2.872329        -1.607768         1.463525
 C        -1.730266        -0.648100         1.246773
 C        -1.988199         0.347284         0.096007
 C        -0.747371         1.098844        -0.278510
 C         0.262824         0.012397         0.012089
 O         1.476516         0.135859         0.198044
 C        -0.708147        -1.191617         0.181432
 C        -0.181367        -2.563343         0.106325
 O        -1.606297        -0.742909        -0.895641
 H        -2.565558        -2.319351         2.244956
 H        -3.721281        -1.137802         1.991019
 H        -3.247123        -2.189322         0.603508
 H        -1.250787        -0.239266         2.136740
 H        -2.913611         0.855948        -0.122386
 H        -0.938959         1.151430        -1.478216
 H        -0.468143         1.982691         0.248286
 H         0.326789        -2.770762         1.093118
 H        -0.928573        -3.400187        -0.034581
 H         0.592314        -2.623761        -0.720391
