19
Iteration:  1208charge 0 multiplicity 1
 C        -2.940815        -1.508079         1.550905
 C        -1.683542        -0.663231         1.226811
 C        -1.922953         0.246990         0.031783
 C        -0.743576         1.217436        -0.068686
 C         0.279053         0.003961         0.052376
 O         1.481777         0.197426        -0.021319
 C        -0.713652        -1.261958         0.205022
 C        -0.253826        -2.706493         0.089251
 O        -1.550726        -0.755725        -0.917048
 H        -2.669673        -2.390865         2.150343
 H        -3.586633        -0.942353         2.245920
 H        -3.434574        -1.759555         0.627237
 H        -1.137762        -0.315447         2.089520
 H        -2.957672         0.612912         0.118209
 H        -0.628260         1.771292        -0.956694
 H        -0.800487         2.121358         0.557073
 H        -0.424727        -3.242416         1.002508
 H        -0.991900        -3.130563        -0.698332
 H         0.723405        -2.769742        -0.447978
