19
Iteration:  2285
 C        -2.847626        -1.545665         1.666576
 C        -1.653764        -0.660700         1.204486
 C        -1.953644         0.268780         0.040685
 C        -0.633634         1.177677        -0.205137
 C         0.279064         0.022350         0.038461
 O         1.509765         0.192387         0.246158
 C        -0.724045        -1.277453         0.126090
 C        -0.319557        -2.637267        -0.063544
 O        -1.704538        -0.751523        -0.971711
 H        -2.480807        -2.557284         1.626352
 H        -3.260944        -1.377882         2.651214
 H        -3.674633        -1.584749         0.977867
 H        -1.297108        -0.088651         2.119539
 H        -3.021466         0.737218         0.077529
 H        -0.654370         1.542827        -1.194278
 H        -0.381153         2.100940         0.438010
 H        -0.021484        -2.850072         0.939405
 H        -1.109063        -3.365671        -0.247744
 H         0.487342        -2.816304        -0.743499
