19
Iteration:   435
 C        -2.827308        -1.501098         1.409974
 C        -1.722119        -0.565450         1.322340
 C        -1.941327         0.286158        -0.052412
 C        -0.747134         1.234601        -0.244055
 C         0.276814         0.113802         0.081482
 O         1.493417         0.131148         0.150691
 C        -0.660434        -1.199982         0.236722
 C        -0.213273        -2.687195         0.022460
 O        -1.699957        -0.944769        -0.755169
 H        -2.798507        -2.348788         2.111733
 H        -3.829013        -1.082122         1.733352
 H        -3.038398        -1.998785         0.457618
 H        -1.360629        -0.071070         2.249181
 H        -2.872266         0.762171        -0.402724
 H        -0.551560         1.674547        -1.241361
 H        -0.748135         2.042690         0.469189
 H         0.641303        -2.966310         0.643163
 H        -0.993957        -3.492589         0.087442
 H         0.104677        -2.709255        -1.014408
