19
Iteration:  2949
 C        -3.032217        -1.477255         1.572017
 C        -1.810306        -0.601534         1.175686
 C        -1.933138         0.323877        -0.085497
 C        -0.751509         1.181490        -0.013271
 C         0.308024         0.035544         0.036196
 O         1.545583         0.058373         0.037601
 C        -0.716896        -1.228062         0.201968
 C        -0.166956        -2.637782         0.086825
 O        -1.576280        -0.809817        -0.890509
 H        -3.084746        -2.310886         0.873390
 H        -2.679100        -1.968226         2.471090
 H        -4.027089        -1.078879         1.654676
 H        -1.398081        -0.126284         2.067222
 H        -2.793268         0.789180        -0.490249
 H        -0.606431         1.686825        -0.943116
 H        -0.580779         1.838145         0.946463
 H         0.869413        -2.601966         0.520826
 H        -0.737836        -3.467960         0.540281
 H        -0.003682        -2.928810        -0.956370
