19
Iteration:   684
 C        -2.844511        -1.490041         1.477209
 C        -1.546488        -0.633267         1.203579
 C        -1.960837         0.282570        -0.025521
 C        -0.760397         1.172994        -0.197453
 C         0.297187         0.019985        -0.062991
 O         1.428315         0.176603         0.351710
 C        -0.689358        -1.218556         0.141720
 C        -0.248281        -2.579067         0.087672
 O        -1.696555        -0.930027        -0.921416
 H        -2.740130        -2.562310         1.619620
 H        -3.259556        -1.122425         2.441183
 H        -3.646873        -1.284177         0.759730
 H        -1.116967        -0.119673         2.068497
 H        -3.010234         0.724712        -0.050923
 H        -0.725953         1.697901        -1.186538
 H        -0.569805         1.974950         0.621992
 H         0.720599        -2.893037         0.534024
 H        -0.978218        -3.269868         0.529441
 H        -0.118230        -2.787057        -0.981027
