19
Iteration:   458charge 0 multiplicity 1
 C        -2.940991        -1.549211         1.513567
 C        -1.782300        -0.699375         1.180253
 C        -2.041638         0.366802         0.080396
 C        -0.721092         1.105198        -0.139171
 C         0.296032        -0.055135         0.037247
 O         1.493125         0.131411         0.053834
 C        -0.673841        -1.189953         0.203800
 C        -0.122262        -2.533263         0.188743
 O        -1.572712        -0.766222        -0.970609
 H        -2.937377        -2.488220         2.141030
 H        -3.715051        -0.963486         2.111444
 H        -3.514593        -1.957295         0.632613
 H        -1.354542        -0.271017         2.114901
 H        -2.999635         0.714565        -0.182638
 H        -0.671369         1.514392        -1.232710
 H        -0.515858         1.925435         0.450323
 H         0.772509        -2.553495         0.845398
 H        -0.825638        -3.294230         0.552680
 H         0.102935        -2.844975        -0.818337
