19
Iteration:  3792charge 0 multiplicity 1
 C        -2.849764        -1.701970         1.593904
 C        -1.833797        -0.628983         1.183820
 C        -1.980656         0.393554         0.013868
 C        -0.691008         1.194604        -0.048082
 C         0.285259         0.050598         0.062278
 O         1.482002        -0.039883         0.000798
 C        -0.711922        -1.203735         0.146045
 C        -0.243875        -2.564533         0.157643
 O        -1.556739        -0.669536        -0.995210
 H        -3.310355        -2.321933         0.858713
 H        -2.657486        -2.213147         2.493768
 H        -3.669852        -1.027276         1.850548
 H        -1.272450        -0.308880         2.061405
 H        -2.960377         0.897030        -0.261268
 H        -0.648383         1.781284        -0.976009
 H        -0.616576         1.917802         0.855252
 H         0.649307        -2.633594         0.752305
 H        -0.932590        -3.390018         0.474865
 H         0.155886        -2.861059        -0.794471
