19
Iteration:  3871
 C        -2.897950        -1.524993         1.655292
 C        -1.701494        -0.682909         1.176362
 C        -2.002640         0.435287         0.048080
 C        -0.727858         1.161778        -0.183629
 C         0.299341        -0.037338         0.085487
 O         1.460234         0.017997         0.218665
 C        -0.757064        -1.251037         0.097971
 C        -0.104399        -2.555461        -0.004054
 O        -1.698714        -0.748345        -0.943791
 H        -3.393763        -1.620243         0.662362
 H        -2.584713        -2.540419         1.913716
 H        -3.372448        -0.933565         2.412880
 H        -0.984287        -0.313052         2.059388
 H        -3.006410         0.865095        -0.103270
 H        -0.508810         1.229000        -1.286327
 H        -0.519224         2.179831         0.305656
 H         0.284357        -2.877862         0.959315
 H        -0.742022        -3.398970        -0.205381
 H         0.570423        -2.486407        -0.889732
