19
Iteration:  2568charge 0 multiplicity 1
 C        -2.931681        -1.574512         1.660623
 C        -1.700244        -0.637864         1.166207
 C        -2.060607         0.353831        -0.007165
 C        -0.652629         1.236204        -0.085929
 C         0.251704         0.034732         0.075582
 O         1.506071         0.014160         0.183279
 C        -0.656679        -1.203182         0.126242
 C        -0.188082        -2.572086         0.017067
 O        -1.630183        -0.795881        -1.029362
 H        -3.119953        -2.505926         1.065988
 H        -2.602990        -1.916360         2.629607
 H        -3.869751        -0.980849         1.750953
 H        -1.360662        -0.274571         2.130492
 H        -3.067779         0.747047        -0.324242
 H        -0.611128         1.589183        -1.061132
 H        -0.545925         2.034810         0.618930
 H         0.390853        -2.880863         0.932037
 H        -1.084213        -3.268741        -0.009993
 H         0.349232        -2.718699        -0.902985
