19
Iteration:  4048
 C        -2.896253        -1.634789         1.556380
 C        -1.850504        -0.641762         1.203294
 C        -1.945931         0.365169         0.036995
 C        -0.676710         1.227887         0.016149
 C         0.278111        -0.033286         0.080496
 O         1.501680        -0.040890        -0.041627
 C        -0.731722        -1.213799         0.124777
 C        -0.172582        -2.548120         0.173025
 O        -1.637166        -0.688383        -0.999291
 H        -3.303911        -1.943808         0.589427
 H        -2.416632        -2.350768         2.305354
 H        -3.702887        -1.110611         2.115555
 H        -1.362300        -0.298549         2.186942
 H        -2.884043         0.860926        -0.187822
 H        -0.517105         1.583998        -1.114588
 H        -0.565745         2.134045         0.675705
 H         0.478366        -2.568083         1.113435
 H        -0.894078        -3.391322         0.094719
 H         0.510215        -2.543198        -0.698240
