19
Iteration:  2483
 C        -2.830563        -1.647096         1.563604
 C        -1.729799        -0.636309         1.133816
 C        -1.986303         0.379549         0.029243
 C        -0.742717         1.213613        -0.169001
 C         0.273100        -0.010876         0.069188
 O         1.424860        -0.120397         0.167074
 C        -0.697166        -1.144743         0.137758
 C        -0.123848        -2.510483         0.154202
 O        -1.666002        -0.712321        -0.985512
 H        -3.687858        -1.568626         0.889277
 H        -2.533086        -2.636737         1.637256
 H        -3.136989        -1.393181         2.562786
 H        -1.319959        -0.040846         1.909007
 H        -2.912241         0.859330        -0.175564
 H        -0.845433         1.729187        -1.166310
 H        -0.646826         2.133528         0.413679
 H         0.439527        -2.605626         1.111512
 H        -0.935217        -3.234205         0.071076
 H         0.710807        -2.686158        -0.458916
