19
Iteration:  2278charge 0 multiplicity 1
 C        -2.798929        -1.504595         1.604969
 C        -1.682439        -0.619345         1.232848
 C        -2.008255         0.288734         0.032790
 C        -0.655569         1.186508        -0.186410
 C         0.343319         0.028775         0.064488
 O         1.482245         0.185683         0.244090
 C        -0.704885        -1.305707         0.180947
 C        -0.303188        -2.671854        -0.101133
 O        -1.707197        -0.790359        -0.954412
 H        -2.596523        -2.610530         1.903509
 H        -3.203080        -1.161384         2.574335
 H        -3.570770        -1.471369         0.762336
 H        -1.130452        -0.068926         1.990369
 H        -2.981874         0.591645         0.156701
 H        -0.694082         1.451888        -1.289598
 H        -0.544390         1.997114         0.488490
 H         0.121625        -3.125584         0.849766
 H        -1.287206        -3.162043        -0.380586
 H         0.436595        -2.630507        -0.901524
