19
Iteration:  2204charge 0 multiplicity 1
 C        -2.866158        -1.607232         1.703668
 C        -1.713248        -0.675869         1.210897
 C        -2.035700         0.393048         0.069776
 C        -0.608235         1.268187        -0.018576
 C         0.238436         0.024848         0.077881
 O         1.402617        -0.150378         0.094063
 C        -0.781706        -1.201023        -0.038544
 C        -0.035212        -2.517702         0.083550
 O        -1.705981        -0.693715        -1.051847
 H        -2.877152        -1.729033         2.805809
 H        -3.893219        -1.381585         1.380329
 H        -2.666284        -2.610628         1.275116
 H        -1.257215        -0.080571         2.008027
 H        -3.076538         0.864390        -0.190745
 H        -0.585386         1.639467        -1.100252
 H        -0.369364         2.023507         0.686777
 H         0.992164        -2.290483         0.505151
 H        -0.694735        -3.269375         0.578287
 H         0.125443        -2.912246        -0.966630
