19
Iteration:  4748
 C        -2.930332        -1.444001         1.469988
 C        -1.632366        -0.651052         1.208607
 C        -2.011408         0.364916         0.014559
 C        -0.699782         1.219367        -0.054704
 C         0.248458        -0.014952         0.108660
 O         1.512405         0.060901         0.144527
 C        -0.707845        -1.253281         0.093470
 C        -0.122685        -2.675947         0.063633
 O        -1.743331        -0.810035        -0.914232
 H        -3.233371        -1.959564         0.624123
 H        -2.825332        -2.152335         2.222163
 H        -3.650129        -0.680433         1.699774
 H        -1.318981        -0.095401         2.025833
 H        -2.984870         0.784729         0.045986
 H        -0.431415         1.588425        -1.073117
 H        -0.650643         1.874627         0.832127
 H         0.900657        -2.668500         0.547924
 H        -0.902934        -3.325688         0.252290
 H         0.289987        -2.960967        -0.982917
