19
Iteration:  2050
 C        -2.795195        -1.712546         1.729732
 C        -1.705938        -0.680712         1.162871
 C        -2.022929         0.388182         0.000305
 C        -0.722629         1.243063        -0.026413
 C         0.292348        -0.027661         0.080444
 O         1.479104        -0.064151         0.029532
 C        -0.679303        -1.170507         0.081049
 C        -0.234407        -2.532583        -0.018549
 O        -1.661221        -0.639766        -0.910553
 H        -3.664796        -1.036022         1.649043
 H        -3.016598        -2.587777         1.167143
 H        -2.739473        -1.964836         2.794189
 H        -1.148617        -0.278659         2.060022
 H        -3.040540         0.803673        -0.378760
 H        -0.763672         1.702912        -1.047427
 H        -0.554614         2.084686         0.638261
 H         0.047435        -2.968060         0.968376
 H        -1.126418        -3.065932        -0.436243
 H         0.569600        -2.552231        -0.707355
