19
Iteration:  4718
 C        -3.038050        -1.578443         1.492264
 C        -1.704644        -0.647438         1.237644
 C        -1.962350         0.324643         0.059834
 C        -0.669873         1.190488        -0.038555
 C         0.319600         0.018418         0.009639
 O         1.482572        -0.016682         0.047509
 C        -0.707072        -1.189110         0.145436
 C        -0.161317        -2.544863         0.099309
 O        -1.608774        -0.771522        -0.938104
 H        -3.081998        -2.330308         0.681453
 H        -2.928436        -2.001398         2.488206
 H        -3.932861        -0.952285         1.469612
 H        -1.527895        -0.078633         2.190313
 H        -2.971089         0.784352        -0.055922
 H        -0.582903         1.988075        -0.858579
 H        -0.478046         1.967040         0.782873
 H         0.787654        -2.590172         0.683901
 H        -0.956616        -3.273188         0.427639
 H         0.010132        -2.829732        -0.904164
