19
Iteration:  4913
 C        -3.001066        -1.543619         1.478781
 C        -1.803465        -0.609224         1.207633
 C        -1.937491         0.315173        -0.016394
 C        -0.682061         1.232042         0.055731
 C         0.304856         0.011128         0.130780
 O         1.499608        -0.048160        -0.059938
 C        -0.706473        -1.160443         0.255905
 C        -0.114312        -2.570115         0.073423
 O        -1.654738        -0.817606        -0.909888
 H        -3.248051        -2.199343         0.595656
 H        -2.889759        -2.199443         2.363481
 H        -3.785980        -0.747727         1.537409
 H        -1.355549        -0.156196         2.128362
 H        -2.829139         0.932432        -0.086645
 H        -0.513562         1.727125        -0.985924
 H        -0.706556         2.146359         0.667982
 H         0.959921        -2.635063         0.464354
 H        -0.864834        -3.406802         0.279882
 H         0.224928        -2.752910        -0.949912
