19
Iteration:  1403charge 0 multiplicity 1
 C        -2.887511        -1.668741         1.625492
 C        -1.784723        -0.579294         1.157007
 C        -1.950102         0.379241         0.100856
 C        -0.668826         1.179172        -0.131995
 C         0.216763        -0.093551         0.060750
 O         1.460697        -0.090673         0.087114
 C        -0.759020        -1.173145         0.054829
 C        -0.017466        -2.469950         0.122752
 O        -1.745286        -0.685912        -0.963340
 H        -2.398034        -1.998768         2.511473
 H        -3.798879        -1.117823         1.758948
 H        -3.121273        -2.489148         0.979360
 H        -1.250696        -0.152155         2.039346
 H        -2.957274         0.897854        -0.142567
 H        -0.557193         1.750050        -1.029736
 H        -0.551335         1.964171         0.624150
 H         0.851991        -2.342077         0.696679
 H        -0.601190        -3.379448         0.339787
 H         0.368207        -2.633785        -0.910967
