19
Iteration:    85
 C        -2.793267        -1.512036         1.748348
 C        -1.757980        -0.555832         1.136813
 C        -2.076196         0.232418        -0.197190
 C        -0.726174         1.138499        -0.009864
 C         0.214400        -0.012663         0.044708
 O         1.420484        -0.003338         0.296380
 C        -0.712144        -1.123319         0.063935
 C        -0.065775        -2.571468         0.071830
 O        -1.656689        -0.785506        -1.108790
 H        -2.227537        -2.111857         2.524544
 H        -3.551273        -0.908391         2.289566
 H        -3.293719        -2.142556         0.984067
 H        -1.281676         0.056875         1.939249
 H        -3.020447         0.700204        -0.454413
 H        -0.472963         1.958767        -0.908029
 H        -0.641102         1.647895         1.010329
 H         0.979672        -2.498102         0.501563
 H        -0.780563        -3.292442         0.501140
 H         0.295372        -2.977490        -0.972175
