19
Iteration:   927charge 0 multiplicity 1
 C        -2.835535        -1.471988         1.605076
 C        -1.789470        -0.574574         1.202331
 C        -2.087015         0.245827        -0.086401
 C        -0.834461         1.225234         0.002207
 C         0.310261         0.038866         0.103011
 O         1.558578         0.016734         0.118549
 C        -0.630580        -1.126284         0.159171
 C        -0.161176        -2.640911        -0.016246
 O        -1.595773        -0.853750        -0.962786
 H        -2.650570        -2.056759         2.522862
 H        -3.615582        -0.747968         1.920009
 H        -3.172758        -2.141191         0.790868
 H        -1.304019        -0.064073         2.050883
 H        -3.055781         0.630288        -0.158596
 H        -0.911897         1.940699        -0.900173
 H        -0.697704         1.727116         0.877392
 H         0.502060        -3.166929         0.640137
 H        -1.092025        -3.259705        -0.082915
 H         0.165855        -2.862348        -1.056985
