19
Iteration:  2128charge 0 multiplicity 1
 C        -3.003567        -1.518680         1.470681
 C        -1.725164        -0.757891         1.309994
 C        -2.019223         0.334259         0.172560
 C        -0.733105         1.168468         0.000910
 C         0.366900         0.066809        -0.048293
 O         1.538384         0.087498        -0.117008
 C        -0.649164        -1.227959         0.157006
 C        -0.202164        -2.629852         0.005897
 O        -1.595548        -0.705670        -0.817209
 H        -3.814236        -0.890050         1.829106
 H        -3.281812        -1.957389         0.527074
 H        -3.085796        -2.302258         2.224453
 H        -1.296766        -0.451665         2.336139
 H        -3.196907         0.615567         0.014501
 H        -0.674115         1.577402        -1.082424
 H        -0.484378         1.938049         0.748761
 H         0.784744        -2.576731         0.511444
 H        -0.911116        -3.152693         0.660012
 H        -0.299688        -3.164608        -0.924234
