19
Iteration:  1576charge 0 multiplicity 1
 C        -2.881337        -1.644105         1.576986
 C        -1.777872        -0.616017         1.173208
 C        -1.977525         0.362864         0.022543
 C        -0.636836         1.221448        -0.012861
 C         0.258750        -0.033054        -0.023318
 O         1.452279        -0.023018         0.024994
 C        -0.670486        -1.166389         0.219901
 C        -0.158407        -2.568617         0.110619
 O        -1.705228        -0.711147        -0.960832
 H        -2.617985        -1.966212         2.618275
 H        -3.839435        -1.099493         1.644128
 H        -2.884621        -2.481097         0.865353
 H        -1.273036        -0.271312         2.098281
 H        -2.928934         0.828924        -0.079578
 H        -0.652099         1.602856        -1.092683
 H        -0.544234         2.032823         0.755298
 H         0.858536        -2.516766         0.470357
 H        -0.759020        -3.357728         0.584114
 H         0.037442        -2.736720        -0.972980
