19
Iteration:  4255
 C        -2.842969        -1.532698         1.527235
 C        -1.717979        -0.561837         1.184589
 C        -1.899496         0.348288        -0.022317
 C        -0.639793         1.136578        -0.070135
 C         0.229361        -0.048530         0.028495
 O         1.444033         0.045750         0.164204
 C        -0.676955        -1.192521         0.117038
 C        -0.266397        -2.581470         0.006897
 O        -1.683560        -0.783041        -0.863057
 H        -3.098189        -2.212641         0.702071
 H        -2.389073        -2.119050         2.356233
 H        -3.835679        -1.191634         1.931707
 H        -1.497361        -0.139417         2.123256
 H        -2.839831         0.841735        -0.236783
 H        -0.573393         1.854886        -0.926421
 H        -0.632559         1.760059         0.814939
 H         0.773909        -2.527330         0.338841
 H        -0.888904        -3.351321         0.530529
 H        -0.186676        -2.969570        -0.987030
