19
Iteration:  2781charge 0 multiplicity 1
 C        -2.888259        -1.576179         1.544086
 C        -1.694194        -0.547703         1.219026
 C        -1.960298         0.377930         0.002501
 C        -0.701214         1.190507        -0.192926
 C         0.294381         0.014712         0.052098
 O         1.503417         0.094145         0.234543
 C        -0.685658        -1.199793         0.059911
 C        -0.278033        -2.655963         0.082084
 O        -1.675327        -0.840089        -0.889779
 H        -2.809711        -2.301344         0.749435
 H        -2.738039        -2.047925         2.527540
 H        -3.792875        -0.979168         1.588664
 H        -1.140452        -0.115587         2.086669
 H        -3.032820         0.693487        -0.119830
 H        -0.546518         1.665219        -1.237200
 H        -0.460221         1.878451         0.600196
 H        -0.053060        -3.330562         0.934202
 H        -1.172791        -2.984253        -0.573227
 H         0.685651        -2.820669        -0.541618
