19
Iteration:  2760
 C        -2.711566        -1.586749         1.467032
 C        -1.731743        -0.509661         1.181604
 C        -2.009187         0.310453        -0.053889
 C        -0.684722         1.169670        -0.149125
 C         0.232458         0.028074         0.051826
 O         1.464909        -0.084552         0.225793
 C        -0.704154        -1.096133         0.217393
 C        -0.263475        -2.566931         0.043885
 O        -1.713856        -0.803114        -0.908388
 H        -2.643566        -2.311461         0.666016
 H        -2.468890        -2.009326         2.454354
 H        -3.608753        -1.002001         1.593816
 H        -1.189875        -0.099572         2.060632
 H        -3.035298         0.747002        -0.232831
 H        -0.626235         1.788771        -1.146940
 H        -0.563946         1.891410         0.714009
 H         0.054419        -2.798379         1.067086
 H        -1.050606        -3.281090        -0.390343
 H         0.807573        -2.748480        -0.240704
