19
Iteration:  4868charge 0 multiplicity 1
 C        -2.891994        -1.503154         1.527742
 C        -1.692459        -0.665161         1.219928
 C        -1.926276         0.332381         0.036426
 C        -0.690356         1.181517        -0.189658
 C         0.270881         0.042142         0.109184
 O         1.466776         0.016092         0.179952
 C        -0.722384        -1.227557         0.155283
 C        -0.219278        -2.612434         0.004463
 O        -1.671279        -0.729580        -0.926268
 H        -3.085336        -2.303469         0.780685
 H        -2.459984        -2.082562         2.431305
 H        -3.819047        -0.873020         1.673880
 H        -1.392741        -0.281776         2.259657
 H        -2.881436         0.797311        -0.072426
 H        -0.678696         1.460831        -1.266127
 H        -0.560668         1.976115         0.576695
 H         0.390527        -2.912854         0.935288
 H        -1.097356        -3.238000        -0.167336
 H         0.547822        -2.735470        -0.841991
