19
Iteration:  2864
 C        -2.867013        -1.584167         1.515490
 C        -1.835140        -0.570529         1.185243
 C        -1.986230         0.388545        -0.048991
 C        -0.733316         1.204802        -0.077156
 C         0.311961        -0.011423         0.114699
 O         1.490631        -0.114590         0.091570
 C        -0.753483        -1.158418         0.189816
 C        -0.083326        -2.497754         0.130664
 O        -1.657578        -0.831247        -0.986255
 H        -3.593803        -1.679522         0.713354
 H        -2.454802        -2.545675         1.847135
 H        -3.477625        -1.181039         2.368673
 H        -1.531136         0.053141         2.028955
 H        -2.985869         0.834101        -0.241171
 H        -0.345967         1.735831        -0.944408
 H        -0.537412         1.990832         0.699965
 H         0.695526        -2.383013         0.849691
 H        -0.665496        -3.273052         0.468355
 H         0.153464        -2.717463        -0.870279
