19
Iteration:   636
 C        -2.772099        -1.533347         1.838677
 C        -1.850628        -0.636786         1.080481
 C        -2.014340         0.324623        -0.149676
 C        -0.690753         1.229507        -0.236957
 C         0.178568         0.081150         0.158707
 O         1.375403        -0.042365         0.235888
 C        -0.790927        -1.269537         0.149879
 C        -0.098603        -2.601991         0.045787
 O        -1.510551        -0.728754        -1.060146
 H        -2.081995        -2.334496         2.311647
 H        -3.321147        -1.045714         2.677007
 H        -3.601852        -2.039292         1.255248
 H        -1.310153        -0.173108         1.957454
 H        -2.973227         0.770627        -0.434806
 H        -0.644962         1.707331        -1.174525
 H        -0.625216         1.985215         0.543559
 H         0.488226        -2.801034         0.928631
 H        -0.755537        -3.489709        -0.051718
 H         0.677066        -2.404686        -0.746044
