19
Iteration:   847
 C        -2.816690        -1.534020         1.356818
 C        -1.666083        -0.639729         1.219896
 C        -1.942321         0.380886         0.069552
 C        -0.753044         1.196099        -0.161095
 C         0.201139         0.031412         0.035856
 O         1.411894         0.005270        -0.004712
 C        -0.672687        -1.143188         0.229214
 C        -0.212172        -2.531355         0.189384
 O        -1.624887        -0.906511        -0.838988
 H        -2.447616        -2.569714         1.561234
 H        -3.602586        -1.329655         2.162103
 H        -3.372794        -1.661307         0.355815
 H        -1.421595        -0.136310         2.220538
 H        -2.913803         0.897945         0.235707
 H        -0.531326         1.776744        -0.953711
 H        -0.635225         1.944623         0.717657
 H        -0.111798        -2.928845         1.232948
 H        -0.807488        -3.192362        -0.418771
 H         0.822858        -2.544375        -0.166758
