19
Iteration:  1191
 C        -2.880202        -1.503691         1.565289
 C        -1.763961        -0.645936         1.212223
 C        -2.043308         0.337923        -0.022218
 C        -0.761023         1.130404         0.028957
 C         0.313083         0.046662         0.049982
 O         1.569533         0.146544        -0.030240
 C        -0.652222        -1.173182         0.140179
 C        -0.245193        -2.686794         0.085125
 O        -1.642157        -0.843055        -0.904881
 H        -2.523269        -2.499465         1.900329
 H        -3.538895        -1.035314         2.322713
 H        -3.606116        -1.644473         0.728199
 H        -1.425783        -0.091881         2.129132
 H        -2.908962         0.909458        -0.458250
 H        -0.600034         1.845306        -0.912893
 H        -0.420517         1.657960         0.980090
 H        -0.155849        -3.051742         1.130589
 H        -0.810708        -3.313644        -0.548177
 H         0.777882        -2.733968        -0.302691
