19
Iteration:  4809
 C        -2.707784        -1.567624         1.627098
 C        -1.737835        -0.604043         1.187942
 C        -1.987206         0.403154        -0.160459
 C        -0.686227         1.227755        -0.107059
 C         0.230485        -0.026407         0.105471
 O         1.443274        -0.038355         0.295708
 C        -0.758537        -1.141663         0.069918
 C        -0.229376        -2.604227         0.038594
 O        -1.666251        -0.800496        -0.990032
 H        -3.618428        -1.772288         0.967289
 H        -2.214838        -2.579615         1.936547
 H        -3.061969        -1.302967         2.686408
 H        -1.421991         0.095858         2.082691
 H        -2.944868         0.979036        -0.386422
 H        -0.437758         1.614277        -1.105895
 H        -0.531109         2.119247         0.486575
 H         0.238320        -2.904450         0.934853
 H        -1.035529        -3.388036        -0.034908
 H         0.339490        -2.722863        -0.868981
