19
Iteration:  4414charge 0 multiplicity 1
 C        -2.866578        -1.603815         1.546556
 C        -1.732559        -0.577178         1.205473
 C        -1.986143         0.398773        -0.112695
 C        -0.697075         1.223867         0.049278
 C         0.272627        -0.029504        -0.034639
 O         1.497042        -0.073482         0.042635
 C        -0.747653        -1.157116         0.205329
 C        -0.146717        -2.525501         0.115891
 O        -1.689436        -0.784425        -0.932854
 H        -3.202260        -2.043241         0.619006
 H        -2.728263        -2.335881         2.305259
 H        -3.682981        -0.994885         1.832746
 H        -1.307788        -0.191073         2.099991
 H        -3.011769         0.683450        -0.254330
 H        -0.503153         1.848977        -0.733415
 H        -0.439749         1.503756         1.109343
 H         0.441841        -2.683216         1.044017
 H        -0.937438        -3.222649        -0.025044
 H         0.526537        -2.631969        -0.736233
