19
Iteration:  3187
 C        -2.843609        -1.575425         1.334839
 C        -1.772928        -0.623248         1.277549
 C        -2.003771         0.416484        -0.002729
 C        -0.698241         1.161609        -0.094404
 C         0.283175         0.013773         0.065099
 O         1.518310         0.089611         0.003778
 C        -0.688059        -1.153792         0.176952
 C        -0.241734        -2.614600         0.215940
 O        -1.640546        -0.864205        -0.814402
 H        -3.331125        -1.678367         0.335265
 H        -2.652057        -2.614195         1.734687
 H        -3.707090        -1.172962         1.909224
 H        -1.329481        -0.247108         2.239474
 H        -2.910109         0.792913        -0.307606
 H        -0.404099         1.674156        -1.111550
 H        -0.374174         1.941070         0.679607
 H         0.832764        -2.592547         0.400754
 H        -0.832512        -3.227401         0.895350
 H        -0.523087        -3.016838        -0.754112
