19
Iteration:  2369
 C        -3.097732        -1.591787         1.554093
 C        -1.797428        -0.649871         1.280677
 C        -1.952083         0.275437         0.031563
 C        -0.662391         1.227322        -0.078299
 C         0.363592         0.029251         0.042475
 O         1.533220         0.032166        -0.037533
 C        -0.741593        -1.162059         0.199768
 C        -0.091560        -2.591434         0.090306
 O        -1.627456        -0.759247        -0.920223
 H        -2.954373        -2.614815         1.213688
 H        -3.156039        -1.671653         2.686791
 H        -4.003612        -1.155730         1.122686
 H        -1.506135        -0.300767         2.262606
 H        -2.842927         0.945078        -0.244214
 H        -0.632537         1.686654        -1.074432
 H        -0.861361         2.004250         0.673579
 H         0.805852        -2.750147         0.743964
 H        -0.838827        -3.389864         0.149178
 H         0.481691        -2.600543        -0.932932
