19
Iteration:  1390
 C        -2.876365        -1.576468         1.612586
 C        -1.710705        -0.760636         1.217412
 C        -1.990850         0.361937        -0.000844
 C        -0.696509         1.175969        -0.134957
 C         0.263046         0.052944         0.052354
 O         1.436940        -0.050886         0.082876
 C        -0.746528        -1.198407         0.158353
 C        -0.084235        -2.531372         0.047036
 O        -1.683123        -0.659898        -0.923679
 H        -2.840111        -2.166386         2.541267
 H        -3.755729        -0.954839         1.809466
 H        -3.101802        -2.297479         0.819912
 H        -1.291901        -0.325485         2.124079
 H        -2.927922         0.905182        -0.100532
 H        -0.644826         1.399858        -1.265234
 H        -0.519759         1.983902         0.597363
 H         0.824813        -2.415453         0.604716
 H        -0.672856        -3.295462         0.582071
 H         0.200643        -2.786445        -0.959089
