19
Iteration:  1963charge 0 multiplicity 1
 C        -2.794460        -1.584958         1.686398
 C        -1.784269        -0.592343         1.180841
 C        -1.979389         0.366644         0.033475
 C        -0.748840         1.189486        -0.216922
 C         0.201900        -0.050886         0.098232
 O         1.447573        -0.121859         0.129760
 C        -0.727967        -1.169083         0.102604
 C        -0.058934        -2.532738        -0.039671
 O        -1.675993        -0.644868        -0.879895
 H        -2.753201        -1.649987         2.770425
 H        -3.719519        -1.206558         1.343967
 H        -2.688342        -2.575096         1.259348
 H        -1.199588        -0.210023         2.081382
 H        -3.097038         0.811547        -0.149857
 H        -0.767779         1.628276        -1.279040
 H        -0.555843         1.772440         0.704787
 H         0.516316        -2.767556         0.850123
 H        -0.732541        -3.393113        -0.167715
 H         0.579710        -2.691815        -0.823777
