19
Iteration:   201
 C        -2.918683        -1.584066         1.606528
 C        -1.781727        -0.678611         1.147652
 C        -2.020819         0.322262        -0.018487
 C        -0.762324         1.267633        -0.046380
 C         0.214736         0.047603         0.089249
 O         1.422914         0.048250        -0.029226
 C        -0.766870        -1.214293         0.215941
 C        -0.149298        -2.551766         0.211628
 O        -1.415219        -0.836046        -1.048952
 H        -2.463551        -2.466455         2.079522
 H        -3.532895        -1.050728         2.336097
 H        -3.531137        -1.899301         0.753826
 H        -1.297215        -0.312088         2.094430
 H        -3.010887         0.739738        -0.355077
 H        -0.603382         1.861949        -0.854159
 H        -0.499543         1.933780         0.842526
 H         0.407499        -2.688801         1.149481
 H        -0.821310        -3.348036        -0.056248
 H         0.678380        -2.510641        -0.497368
