19
Iteration:  2705
 C        -2.968886        -1.538548         1.602418
 C        -1.804949        -0.659051         1.164570
 C        -1.969508         0.363808        -0.072412
 C        -0.724844         1.184889        -0.006856
 C         0.263003        -0.072903         0.042118
 O         1.480510         0.018128         0.080938
 C        -0.658143        -1.198824         0.170973
 C        -0.098627        -2.542119         0.172173
 O        -1.590899        -0.760921        -1.024728
 H        -3.716376        -1.470700         0.791478
 H        -2.666417        -2.581908         1.846083
 H        -3.425872        -1.030571         2.456723
 H        -1.221100        -0.171333         1.988763
 H        -2.972942         0.781597        -0.342936
 H        -0.603807         1.664614        -1.091977
 H        -0.842444         1.998371         0.806096
 H         0.441896        -2.757056         1.092946
 H        -0.889332        -3.366673         0.211526
 H         0.439080        -2.669168        -0.812303
