19
Iteration:  2179
 C        -2.786236        -1.618678         1.537491
 C        -1.727683        -0.624773         1.192799
 C        -1.998856         0.336692         0.007714
 C        -0.723060         1.221149        -0.029065
 C         0.280914        -0.014231         0.020390
 O         1.506717        -0.085811        -0.001436
 C        -0.735993        -1.186355         0.127662
 C        -0.196737        -2.516308         0.109644
 O        -1.664606        -0.677108        -0.871748
 H        -3.039958        -1.522106         2.676444
 H        -3.776772        -1.470588         1.037683
 H        -2.585241        -2.720178         1.337384
 H        -1.488972         0.013106         2.011302
 H        -2.939217         0.712255        -0.168950
 H        -0.691962         1.968338        -0.814180
 H        -0.717252         1.632618         0.987042
 H         0.935845        -2.553946         0.280175
 H        -0.883465        -3.246126         0.677705
 H        -0.401736        -2.814600        -0.931702
