19
Iteration:  4263
 C        -2.847955        -1.565050         1.560360
 C        -1.742578        -0.579935         1.194887
 C        -1.978513         0.373962        -0.004435
 C        -0.683725         1.176489        -0.062688
 C         0.296783        -0.019039         0.072598
 O         1.483957        -0.000174         0.138965
 C        -0.736569        -1.197131         0.097872
 C        -0.202230        -2.596919         0.025402
 O        -1.682213        -0.773850        -0.903394
 H        -3.196826        -2.136194         0.624623
 H        -2.537692        -2.319094         2.376111
 H        -3.832708        -1.051792         1.946192
 H        -1.368243        -0.008125         2.145000
 H        -2.846676         0.939951        -0.318074
 H        -0.437322         1.632861        -1.024771
 H        -0.524159         1.966653         0.664683
 H         0.819795        -2.611220         0.458662
 H        -0.801474        -3.383215         0.522117
 H        -0.137612        -2.793780        -1.043184
