19
Iteration:  1496
 C        -2.928485        -1.553246         1.579036
 C        -1.716304        -0.683432         1.214153
 C        -1.936031         0.323486         0.080279
 C        -0.693509         1.174648        -0.047412
 C         0.325613         0.084379         0.016280
 O         1.580053         0.230966         0.031905
 C        -0.712491        -1.202152         0.059976
 C        -0.294416        -2.685020         0.104617
 O        -1.676845        -0.893274        -0.908095
 H        -2.809670        -2.618103         1.927732
 H        -3.410143        -0.854416         2.321257
 H        -3.720616        -1.524914         0.774496
 H        -1.232311        -0.166265         2.126486
 H        -2.915565         0.768576        -0.096670
 H        -0.856634         1.715280        -1.066806
 H        -0.345036         2.035213         0.544730
 H         0.102577        -3.212583         1.063834
 H        -1.117414        -3.348181        -0.312395
 H         0.556221        -2.738524        -0.622206
