19
Iteration:  1851charge 0 multiplicity 1
 C        -2.928490        -1.568712         1.456475
 C        -1.784975        -0.590621         1.218964
 C        -1.940331         0.316270         0.041889
 C        -0.696031         1.228916        -0.101182
 C         0.281418         0.027644         0.024256
 O         1.532716         0.057950        -0.041533
 C        -0.622055        -1.174917         0.304758
 C        -0.185900        -2.653242         0.125460
 O        -1.741525        -0.807746        -0.896030
 H        -2.472189        -2.537021         1.343322
 H        -3.278299        -1.504717         2.515549
 H        -3.722389        -1.584633         0.715916
 H        -1.473805        -0.078489         2.185046
 H        -2.925426         0.761979         0.111869
 H        -0.460827         1.754698        -0.965839
 H        -0.644418         1.901986         0.792869
 H         0.840564        -2.492540         0.474984
 H        -0.667444        -3.438687         0.664732
 H        -0.110706        -2.847211        -0.962728
