19
Iteration:  1657charge 0 multiplicity 1
 C        -2.896986        -1.551867         1.599060
 C        -1.754293        -0.608314         1.187838
 C        -2.024359         0.308643         0.009320
 C        -0.688619         1.142475        -0.105592
 C         0.261441         0.081034         0.084148
 O         1.464627        -0.046821         0.054063
 C        -0.712193        -1.171356         0.196789
 C        -0.108232        -2.579750         0.037424
 O        -1.629843        -0.737090        -0.942089
 H        -2.440030        -2.532249         1.722323
 H        -3.252876        -1.279550         2.596802
 H        -3.793970        -1.723151         1.001942
 H        -1.361696        -0.055425         2.000847
 H        -3.015517         0.886578        -0.186015
 H        -0.599809         1.579690        -1.107815
 H        -0.586735         1.998093         0.633407
 H         0.770693        -2.663504         0.672337
 H        -0.794253        -3.292606         0.462827
 H         0.025879        -2.864365        -0.972812
