19
Iteration:   130
 C        -2.829984        -1.605939         1.601137
 C        -1.739414        -0.632585         1.237976
 C        -2.074746         0.286845        -0.031310
 C        -0.689100         1.136857        -0.233123
 C         0.255139         0.007288         0.096415
 O         1.424144         0.053419         0.203127
 C        -0.655968        -1.145697         0.171680
 C        -0.127190        -2.580126         0.081708
 O        -1.662624        -0.701628        -0.942906
 H        -2.499276        -2.404843         2.272078
 H        -3.768994        -1.066986         1.827544
 H        -2.969386        -2.052780         0.595671
 H        -1.442136        -0.095484         2.137840
 H        -3.076327         0.642772        -0.231880
 H        -0.497624         1.390091        -1.438389
 H        -0.509696         2.111894         0.180674
 H         0.553002        -2.778746         0.960768
 H        -0.988629        -3.304771        -0.009013
 H         0.575152        -2.703952        -0.817667
