19
Iteration:  3530charge 0 multiplicity 1
 C        -2.960346        -1.598168         1.606973
 C        -1.777905        -0.549434         1.123183
 C        -1.942848         0.338960        -0.058676
 C        -0.705549         1.189467        -0.029034
 C         0.305314         0.050657         0.125766
 O         1.489911        -0.055544         0.059410
 C        -0.710788        -1.204497         0.138170
 C        -0.133417        -2.563931         0.115407
 O        -1.662061        -0.767393        -0.999549
 H        -3.611897        -2.026561         0.843959
 H        -2.370230        -2.302842         2.254640
 H        -3.672331        -1.038584         2.296711
 H        -1.315462        -0.234533         2.054162
 H        -2.987123         0.800723        -0.187510
 H        -0.540247         1.588369        -1.014186
 H        -0.451213         1.803189         0.896560
 H         0.882267        -2.407068         0.431114
 H        -0.691439        -3.168389         0.855585
 H        -0.153197        -2.844030        -0.932533
