19
Iteration:  2656
 C        -3.059216        -1.514342         1.406915
 C        -1.795428        -0.657821         1.247554
 C        -1.945172         0.259855         0.041831
 C        -0.653423         1.095557        -0.089900
 C         0.306261         0.094825         0.083974
 O         1.504865         0.155346        -0.009378
 C        -0.667571        -1.189555         0.241307
 C        -0.213778        -2.631474         0.122133
 O        -1.552965        -0.812046        -0.873628
 H        -3.769032        -1.483873         0.583481
 H        -2.671656        -2.487036         1.630411
 H        -3.554325        -1.150444         2.320944
 H        -1.465444        -0.051038         2.060812
 H        -2.828447         0.807169        -0.263156
 H        -0.717396         1.480734        -1.003850
 H        -0.474322         1.844928         0.613411
 H         0.777955        -2.740455         0.580983
 H        -0.730673        -3.424150         0.612843
 H        -0.221799        -2.809495        -0.925887
