19
Iteration:  3546
 C        -2.948294        -1.472584         1.651683
 C        -1.773022        -0.687554         1.217748
 C        -2.054213         0.315640        -0.009686
 C        -0.689493         1.166709        -0.102854
 C         0.284543        -0.032633         0.038855
 O         1.522493        -0.003837         0.121118
 C        -0.730270        -1.202972         0.130931
 C        -0.131447        -2.535482         0.037545
 O        -1.589978        -0.734217        -0.950934
 H        -3.170901        -2.106594         0.747400
 H        -2.764259        -2.266925         2.390518
 H        -3.737738        -0.790944         1.940289
 H        -1.519617        -0.062128         2.150600
 H        -2.967439         0.783375        -0.303970
 H        -0.584300         1.705941        -1.105794
 H        -0.582517         1.861731         0.691900
 H         0.938548        -2.630374         0.409635
 H        -0.727969        -3.369495         0.510372
 H        -0.065984        -2.967936        -0.997690
