19
Iteration:  3083charge 0 multiplicity 1
 C        -2.823947        -1.555448         1.605206
 C        -1.699588        -0.564773         1.187784
 C        -1.984194         0.351007        -0.091659
 C        -0.691154         1.132348        -0.068241
 C         0.302065         0.024805         0.030940
 O         1.503472         0.068706         0.222976
 C        -0.760182        -1.187618         0.118986
 C        -0.255839        -2.591852         0.066982
 O        -1.663510        -0.877600        -0.948027
 H        -3.073854        -2.126927         0.721863
 H        -2.584621        -2.186829         2.418612
 H        -3.706509        -0.960699         1.921036
 H        -1.152199        -0.023111         1.967432
 H        -2.928237         0.951600        -0.423944
 H        -0.522738         1.568651        -1.082276
 H        -0.871968         2.185707         0.415241
 H         0.055783        -3.026807         0.988269
 H        -1.084629        -3.184191        -0.194994
 H         0.614502        -2.599605        -0.599829
