19
Iteration:  4647
 C        -2.957745        -1.609150         1.408504
 C        -1.751938        -0.592806         1.183866
 C        -1.913381         0.329021         0.026960
 C        -0.706511         1.270909         0.007072
 C         0.310986         0.002207         0.028571
 O         1.494951         0.003163        -0.008700
 C        -0.641153        -1.175683         0.143494
 C        -0.207263        -2.631926         0.207600
 O        -1.687799        -0.772569        -0.944469
 H        -3.639919        -1.680346         0.592435
 H        -2.597465        -2.458824         1.984928
 H        -3.455909        -1.081235         2.215245
 H        -1.353931        -0.306597         2.134046
 H        -2.949753         0.775990        -0.008966
 H        -0.719666         2.079545        -0.736188
 H        -0.399370         1.877761         0.938584
 H         0.232693        -2.644237         1.217785
 H        -1.010905        -3.438768         0.049113
 H         0.614390        -2.962886        -0.494297
