19
Iteration:   128
 C        -2.822440        -1.613143         1.622313
 C        -1.738432        -0.610577         1.223096
 C        -2.072760         0.278479        -0.057366
 C        -0.691647         1.154221        -0.223647
 C         0.249744         0.018906         0.114439
 O         1.426748         0.033688         0.205769
 C        -0.660696        -1.156624         0.167497
 C        -0.111702        -2.575740         0.076378
 O        -1.677153        -0.714467        -0.951246
 H        -2.503807        -2.440819         2.310647
 H        -3.763841        -1.060939         1.804459
 H        -2.988258        -2.062751         0.610039
 H        -1.427987        -0.059868         2.149085
 H        -3.092807         0.623496        -0.226264
 H        -0.431968         1.472233        -1.398118
 H        -0.491749         2.211805         0.223704
 H         0.537529        -2.807309         0.953457
 H        -0.960861        -3.257654         0.027466
 H         0.530281        -2.708132        -0.865269
