19
Iteration:  1262charge 0 multiplicity 1
 C        -2.802284        -1.646120         1.570832
 C        -1.765491        -0.506950         1.189841
 C        -2.012847         0.379716        -0.008069
 C        -0.628835         1.184460        -0.059135
 C         0.293126         0.013278         0.040404
 O         1.468400        -0.057678         0.076934
 C        -0.745383        -1.164891         0.213809
 C        -0.064372        -2.551896         0.040432
 O        -1.828679        -0.805101        -0.935426
 H        -2.491078        -2.287307         2.395167
 H        -3.787258        -1.197549         1.624887
 H        -3.041234        -2.219099         0.687880
 H        -1.234404         0.022478         2.008253
 H        -3.015170         1.003657        -0.221031
 H        -0.552575         1.864695        -0.821994
 H        -0.480203         1.736939         0.854321
 H         0.162647        -2.863269         1.055633
 H        -0.789759        -3.265327        -0.489210
 H         0.927705        -2.523301        -0.490153
