19
Iteration:   340
 C        -2.746057        -1.495578         1.671970
 C        -1.779864        -0.493698         1.201564
 C        -2.083808         0.280787        -0.118706
 C        -0.802716         1.136874        -0.163377
 C         0.274503        -0.007855         0.111193
 O         1.488441         0.006857         0.283420
 C        -0.723656        -1.165141         0.052667
 C        -0.144936        -2.533772         0.055909
 O        -1.621538        -0.884749        -0.983384
 H        -2.304371        -2.453113         1.941317
 H        -3.401559        -1.276749         2.517229
 H        -3.449284        -1.766797         0.898958
 H        -1.237987         0.140339         1.844864
 H        -3.044932         0.623595        -0.448831
 H        -0.501062         1.843539        -1.041468
 H        -0.879012         1.899820         0.539987
 H         0.677540        -2.680529         0.775666
 H        -0.802084        -3.383168         0.054892
 H         0.377110        -2.602212        -0.887343
