19
Iteration:  2994charge 0 multiplicity 1
 C        -2.896145        -1.463977         1.649186
 C        -1.795694        -0.615663         1.157539
 C        -2.047838         0.296168        -0.087560
 C        -0.691680         1.236747        -0.130332
 C         0.268992        -0.018297         0.072833
 O         1.444456        -0.089479         0.142683
 C        -0.796841        -1.179244         0.128233
 C        -0.048985        -2.555920         0.092098
 O        -1.550951        -0.779580        -0.967504
 H        -3.525378        -1.884594         0.875742
 H        -2.524755        -2.300366         2.199020
 H        -3.605410        -0.933278         2.285548
 H        -1.244964        -0.170397         1.992843
 H        -3.067756         0.650121        -0.313811
 H        -0.591038         1.907627        -0.983271
 H        -0.753067         1.748794         0.932561
 H         0.510736        -2.641273         1.028030
 H        -0.833515        -3.291921         0.042625
 H         0.666987        -2.620355        -0.725501
