19
Iteration:    31
 C        -2.909789        -1.595273         1.492208
 C        -1.695488        -0.537479         1.251152
 C        -1.910891         0.260472        -0.001554
 C        -0.734567         1.137666        -0.194824
 C         0.298304         0.023893         0.022038
 O         1.477819         0.183957         0.221006
 C        -0.636235        -1.168367         0.218219
 C        -0.158958        -2.595376         0.016398
 O        -1.751554        -0.892607        -0.835038
 H        -2.636531        -2.637414         1.756832
 H        -3.766785        -1.063622         1.910709
 H        -3.129262        -1.686165         0.421239
 H        -1.342845         0.081070         2.060387
 H        -2.829112         0.841379        -0.068153
 H        -0.690812         1.619336        -1.281372
 H        -0.679343         1.958080         0.413918
 H         0.806445        -3.046117         0.441855
 H        -0.883285        -3.350466         0.416049
 H        -0.266896        -2.721243        -1.149838
