19
Iteration:  4496
 C        -2.808780        -1.503606         1.521989
 C        -1.730112        -0.567490         1.219705
 C        -1.980296         0.356776        -0.064197
 C        -0.725204         1.172867        -0.122258
 C         0.298588         0.026485         0.114747
 O         1.477804         0.057738         0.206693
 C        -0.683206        -1.209240         0.145815
 C        -0.287851        -2.666782        -0.018864
 O        -1.679536        -0.835665        -0.867934
 H        -3.173285        -1.790035         0.529414
 H        -2.430657        -2.467914         1.882408
 H        -3.601550        -0.990526         2.083211
 H        -1.190125        -0.080357         2.111962
 H        -3.034724         0.666971        -0.212925
 H        -0.304912         1.860544        -0.973094
 H        -0.542771         1.889616         0.704151
 H         0.753907        -2.852847         0.239179
 H        -0.769525        -3.482549         0.517529
 H        -0.251068        -2.653084        -1.131009
