19
Iteration:   237charge 0 multiplicity 1
 C        -2.902338        -1.628639         1.632414
 C        -1.967886        -0.613111         1.080827
 C        -2.084338         0.354357        -0.095160
 C        -0.771885         1.204747         0.054763
 C         0.332920         0.022684         0.153303
 O         1.539636        -0.085741        -0.094602
 C        -0.776952        -1.144542         0.256427
 C        -0.049114        -2.480376         0.201038
 O        -1.482873        -0.761931        -1.055460
 H        -2.387157        -2.094121         2.519509
 H        -3.824136        -1.162077         2.057193
 H        -3.252441        -2.474160         0.983843
 H        -1.528828        -0.008456         1.946051
 H        -3.094522         0.590429        -0.410385
 H        -0.658179         1.724050        -0.959953
 H        -0.753542         1.762165         1.035656
 H         0.615738        -2.589451         1.047578
 H        -0.563911        -3.436164         0.298508
 H         0.406442        -2.369752        -0.807193
