19
Iteration:  2038
 C        -2.792144        -1.612255         1.663444
 C        -1.616075        -0.676530         1.257883
 C        -1.937752         0.359832         0.076034
 C        -0.736375         1.187199        -0.060935
 C         0.216120         0.050144         0.052021
 O         1.427645         0.042118         0.077508
 C        -0.725397        -1.143744         0.055630
 C        -0.322081        -2.625100        -0.075238
 O        -1.607957        -0.719595        -0.956071
 H        -3.780735        -1.101958         1.837977
 H        -2.956591        -2.428178         0.970776
 H        -2.403849        -2.030875         2.597562
 H        -1.156588        -0.204232         2.155005
 H        -2.941451         0.835099        -0.005548
 H        -0.493737         1.540034        -1.062628
 H        -0.526055         1.887151         0.730922
 H        -0.143830        -2.966267         0.990144
 H        -1.119980        -3.323900        -0.481665
 H         0.600464        -2.873825        -0.580503
