19
Iteration:   762charge 0 multiplicity 1
 C        -2.834940        -1.465598         1.526922
 C        -1.788129        -0.583085         1.156926
 C        -2.011285         0.359274        -0.076705
 C        -0.843332         1.294001         0.070746
 C         0.244419        -0.039325         0.097100
 O         1.441941        -0.082483         0.037395
 C        -0.732529        -1.193601         0.154361
 C        -0.012572        -2.633157         0.144143
 O        -1.607889        -0.804606        -0.991460
 H        -2.538685        -1.844743         2.469627
 H        -3.841434        -1.094081         1.620538
 H        -2.597822        -2.323382         0.912676
 H        -1.415337         0.009701         1.958713
 H        -2.960104         0.778113        -0.295552
 H        -0.756316         1.801278        -0.886446
 H        -0.711772         1.757233         1.017959
 H         0.864110        -2.649323         0.825639
 H        -0.721336        -3.392814         0.361869
 H         0.298874        -2.752549        -0.881582
