19
Iteration:   907
 C        -2.904127        -1.540599         1.692407
 C        -1.722193        -0.643332         1.155392
 C        -1.960706         0.310693        -0.078320
 C        -0.740824         1.227244        -0.002633
 C         0.189145         0.020942         0.058912
 O         1.405171        -0.033053         0.078137
 C        -0.713864        -1.241882         0.076909
 C        -0.113259        -2.551165         0.090109
 O        -1.556277        -0.742716        -0.965951
 H        -2.463010        -2.255374         2.399038
 H        -3.728101        -1.033723         2.160930
 H        -3.285104        -2.021883         0.820355
 H        -1.282118        -0.072895         1.952813
 H        -2.948595         0.760292        -0.219365
 H        -0.514429         1.777972        -1.017618
 H        -0.778319         1.831236         0.857832
 H         0.400510        -2.740395         1.014204
 H        -0.801793        -3.374604        -0.244017
 H         0.636116        -2.482037        -0.710518
