19
Iteration:  1700charge 0 multiplicity 1
 C        -2.780431        -1.567524         1.615474
 C        -1.762790        -0.587642         1.179816
 C        -1.982164         0.377521         0.009133
 C        -0.680499         1.213616        -0.107802
 C         0.207413         0.020336         0.006416
 O         1.444340        -0.069696         0.146613
 C        -0.661930        -1.180774         0.049043
 C        -0.087868        -2.592870         0.101236
 O        -1.795302        -0.768242        -0.953575
 H        -2.281648        -2.389832         2.099150
 H        -3.435515        -1.071646         2.340887
 H        -3.369763        -1.876233         0.751508
 H        -1.281032        -0.208311         2.038171
 H        -3.050628         0.856116        -0.022604
 H        -0.495974         1.672922        -1.077607
 H        -0.524301         1.880237         0.822224
 H         0.279249        -2.618523         1.107991
 H        -0.744738        -3.403280        -0.074337
 H         0.719470        -2.666744        -0.593321
