19
Iteration:  1798
 C        -2.906030        -1.551424         1.713790
 C        -1.748967        -0.766537         1.164298
 C        -2.044767         0.383155        -0.028877
 C        -0.736492         1.219113        -0.080180
 C         0.256592        -0.000268         0.000234
 O         1.512424        -0.086362         0.045507
 C        -0.682237        -1.185391         0.106769
 C        -0.054572        -2.576322         0.126989
 O        -1.707508        -0.653846        -0.950627
 H        -2.468923        -2.216949         2.433444
 H        -3.649204        -0.845556         2.058611
 H        -3.275477        -2.157995         0.901495
 H        -1.347651        -0.217530         2.019892
 H        -2.988931         0.987769        -0.369466
 H        -0.680702         1.788443        -1.014410
 H        -0.633065         1.849885         0.863764
 H         0.540374        -2.680975         0.998161
 H        -0.690621        -3.401468         0.011804
 H         0.539348        -2.571600        -0.737051
