19
Iteration:  3877charge 0 multiplicity 1
 C        -2.853434        -1.546771         1.674599
 C        -1.737415        -0.642874         1.158322
 C        -2.004346         0.395682         0.046553
 C        -0.668785         1.204029        -0.189541
 C         0.241515        -0.067431         0.063317
 O         1.476171        -0.002522         0.234685
 C        -0.766632        -1.185900         0.136294
 C        -0.090889        -2.560699        -0.016802
 O        -1.720038        -0.761103        -0.970551
 H        -3.415199        -1.663387         0.747021
 H        -2.509427        -2.533304         1.997956
 H        -3.495309        -0.889218         2.318872
 H        -1.025018        -0.495705         1.983837
 H        -3.035964         0.787014        -0.072573
 H        -0.441153         1.385841        -1.228683
 H        -0.609230         2.112845         0.379023
 H         0.432086        -2.791672         0.932577
 H        -0.893562        -3.330632        -0.246076
 H         0.677482        -2.554402        -0.779892
