19
Iteration:  3702charge 0 multiplicity 1
 C        -3.009858        -1.517591         1.523624
 C        -1.749145        -0.662910         1.198336
 C        -1.976925         0.291701         0.067620
 C        -0.802782         1.174490        -0.103288
 C         0.363269         0.000479         0.054934
 O         1.523725         0.039547         0.011977
 C        -0.708677        -1.200372         0.193645
 C        -0.161770        -2.595362         0.088164
 O        -1.575476        -0.717640        -0.877659
 H        -3.443628        -1.770861         0.551460
 H        -2.805158        -2.370951         2.181081
 H        -3.752860        -0.838647         2.020209
 H        -1.259333        -0.402690         2.211374
 H        -2.993633         0.660898        -0.093208
 H        -0.573857         1.381376        -1.230825
 H        -0.509867         1.999236         0.564207
 H         0.675247        -2.807819         0.929529
 H        -0.967815        -3.357232         0.162957
 H         0.242977        -2.565280        -0.995012
