19
Iteration:  1759
 C        -2.793286        -1.495471         1.619115
 C        -1.669291        -0.613530         1.221723
 C        -2.005850         0.313364        -0.041145
 C        -0.800882         1.122226        -0.115913
 C         0.287364         0.067952        -0.011704
 O         1.538180         0.135091         0.104179
 C        -0.635005        -1.198374         0.267784
 C        -0.369884        -2.656976        -0.067434
 O        -1.627042        -0.834862        -0.845340
 H        -2.863587        -1.976801         2.647610
 H        -3.794914        -1.009657         1.556384
 H        -2.889951        -2.359976         0.919081
 H        -1.080007        -0.274923         2.132829
 H        -2.965228         0.762609        -0.283210
 H        -0.483762         1.741110        -1.024219
 H        -0.668340         1.858269         0.644590
 H        -0.054346        -3.302482         0.840490
 H        -1.304052        -3.045043        -0.621475
 H         0.601659        -2.701947        -0.692221
