19
Iteration:   118charge 0 multiplicity 1
 C        -2.792345        -1.623300         1.629448
 C        -1.746137        -0.543544         1.166842
 C        -2.019805         0.302477        -0.117969
 C        -0.731086         1.269294        -0.164500
 C         0.228806         0.071984         0.144682
 O         1.465255        -0.043826         0.231025
 C        -0.711348        -1.178488         0.148418
 C        -0.082434        -2.536766         0.052657
 O        -1.709061        -0.840513        -0.982489
 H        -2.514269        -2.268408         2.502352
 H        -3.707457        -1.138323         2.051250
 H        -3.158337        -2.294911         0.823774
 H        -1.221593         0.031431         1.954088
 H        -2.991957         0.746854        -0.282349
 H        -0.438983         1.605748        -1.301095
 H        -0.644616         2.048650         0.635864
 H         0.594995        -2.807981         0.901676
 H        -0.916767        -3.269384         0.133363
 H         0.377218        -2.683729        -0.982412
