19
Iteration:  3664charge 0 multiplicity 1
 C        -2.785301        -1.563959         1.605440
 C        -1.751178        -0.602507         1.148649
 C        -2.009827         0.372998        -0.123391
 C        -0.717987         1.215797        -0.005254
 C         0.313736        -0.007875        -0.025057
 O         1.469868        -0.027305         0.150233
 C        -0.725378        -1.174503         0.081659
 C        -0.224072        -2.573040         0.164930
 O        -1.663425        -0.790534        -0.943775
 H        -3.623365        -1.843625         0.898616
 H        -2.394314        -2.611048         1.820107
 H        -3.178691        -1.196577         2.567471
 H        -1.364615        -0.009362         1.922726
 H        -2.991325         0.835735        -0.389649
 H        -0.347091         1.868706        -0.781537
 H        -0.827033         1.901330         0.876221
 H         0.349283        -2.860417         1.104010
 H        -1.048703        -3.295751        -0.105827
 H         0.550542        -2.745622        -0.657531
