19
Iteration:  3252
 C        -2.889579        -1.502628         1.598678
 C        -1.811344        -0.587064         1.164620
 C        -2.024421         0.318082        -0.080084
 C        -0.639592         1.187270         0.024007
 C         0.250625         0.016695         0.156127
 O         1.423116        -0.052083         0.057332
 C        -0.714518        -1.146700         0.197048
 C        -0.070454        -2.552378         0.077916
 O        -1.654220        -0.870700        -1.033829
 H        -3.149046        -2.169478         0.768046
 H        -2.556503        -1.934352         2.550373
 H        -3.761176        -0.859626         1.662118
 H        -1.320370        -0.208158         2.052250
 H        -2.814552         0.832182        -0.503871
 H        -0.466709         2.034323        -0.733224
 H        -0.613044         1.893504         0.948775
 H         0.924864        -2.548278         0.377102
 H        -0.517863        -3.394940         0.534056
 H        -0.013556        -2.726814        -0.968490
