19
Iteration:   253charge 0 multiplicity 1
 C        -2.893569        -1.601730         1.526379
 C        -1.797661        -0.580140         1.178685
 C        -1.973583         0.278972        -0.086509
 C        -0.723531         1.201450         0.039017
 C         0.221719         0.010257         0.027189
 O         1.424460         0.006798        -0.006618
 C        -0.711899        -1.188644         0.183119
 C        -0.107846        -2.495599         0.198190
 O        -1.570328        -0.820998        -0.942819
 H        -2.620024        -2.096773         2.446160
 H        -3.869602        -1.133025         1.642200
 H        -2.929149        -2.309417         0.718459
 H        -1.459457        -0.067679         2.049815
 H        -2.826994         0.879183        -0.447627
 H        -0.551165         1.872784        -0.829580
 H        -0.664352         1.757352         0.984074
 H         0.731176        -2.433259         0.930581
 H        -0.845674        -3.311065         0.351751
 H         0.432064        -2.667906        -0.727408
