19
Iteration:   597
 C        -2.845625        -1.548634         1.593843
 C        -1.751229        -0.564745         1.159761
 C        -1.991935         0.269526        -0.099274
 C        -0.758282         1.277991        -0.125972
 C         0.320944         0.067796         0.090489
 O         1.518514         0.006142         0.140327
 C        -0.753632        -1.146105         0.135078
 C        -0.092236        -2.658600         0.110933
 O        -1.736362        -0.859437        -0.947732
 H        -2.496182        -1.840016         2.555696
 H        -3.786535        -1.030837         1.721588
 H        -2.846498        -2.435963         1.012525
 H        -1.261380        -0.026857         1.971017
 H        -3.015862         0.765287        -0.304597
 H        -0.621455         1.940699        -1.003816
 H        -0.726279         1.896331         0.861985
 H        -0.000962        -2.879439         1.197190
 H        -0.894879        -3.329974        -0.285708
 H         0.826500        -2.814325        -0.464310
