19
Iteration:  1953
 C        -2.837524        -1.592807         1.692351
 C        -1.749589        -0.585959         1.216257
 C        -1.997664         0.363008         0.016857
 C        -0.731262         1.244380        -0.094287
 C         0.251209        -0.029210         0.094589
 O         1.440519        -0.165650         0.105132
 C        -0.766349        -1.167093         0.060628
 C        -0.021281        -2.528475        -0.017285
 O        -1.699601        -0.725922        -0.954221
 H        -2.728255        -1.811589         2.757878
 H        -3.855509        -1.286887         1.595698
 H        -2.769855        -2.554990         1.169147
 H        -1.368186         0.071248         2.044167
 H        -3.068550         0.846481        -0.248531
 H        -0.628301         1.715598        -1.162760
 H        -0.389591         2.130190         0.493082
 H         0.641834        -2.498006         0.829296
 H        -0.757974        -3.312651         0.095875
 H         0.522571        -2.525729        -0.892884
