19
Iteration:  2004
 C        -2.809721        -1.521505         1.593918
 C        -1.617161        -0.662922         1.234522
 C        -2.005031         0.341946         0.034384
 C        -0.722704         1.152233        -0.127248
 C         0.313629         0.065045        -0.008263
 O         1.565968         0.165724         0.188473
 C        -0.644109        -1.185520         0.028481
 C        -0.337345        -2.706405        -0.102360
 O        -1.782682        -0.815884        -0.814061
 H        -3.225764        -1.193866         2.575554
 H        -3.587054        -1.735290         0.812758
 H        -2.523271        -2.548495         1.894568
 H        -1.117034        -0.307640         2.157192
 H        -2.906062         0.913086        -0.060284
 H        -0.452347         1.702362        -0.991324
 H        -0.792708         1.879691         0.704083
 H        -0.221794        -2.949259         1.003194
 H        -1.235735        -3.258204        -0.540053
 H         0.629750        -2.927637        -0.660822
