19
Iteration:  2124charge 0 multiplicity 1
 C        -3.000208        -1.519605         1.483784
 C        -1.723948        -0.752571         1.309852
 C        -2.001023         0.334884         0.186392
 C        -0.758367         1.169494         0.028083
 C         0.351489         0.052736        -0.051528
 O         1.545183         0.059424        -0.114425
 C        -0.657858        -1.225712         0.129536
 C        -0.170277        -2.610919         0.008715
 O        -1.610355        -0.711575        -0.841800
 H        -3.864831        -0.772094         1.714727
 H        -3.139813        -1.992716         0.484466
 H        -3.081708        -2.248570         2.337351
 H        -1.392708        -0.354894         2.254808
 H        -2.976964         0.670737         0.069165
 H        -0.751091         1.602216        -0.962535
 H        -0.635504         2.025819         0.691446
 H         0.831990        -2.661318         0.559151
 H        -0.956332        -3.118808         0.698486
 H        -0.229068        -3.132121        -0.963623
