19
Iteration:  2589
 C        -2.777098        -1.639983         1.599935
 C        -1.801528        -0.521595         1.120162
 C        -1.983750         0.416217        -0.075915
 C        -0.675010         1.172813        -0.036988
 C         0.250658        -0.004106         0.060874
 O         1.480196        -0.078521         0.154976
 C        -0.770541        -1.179801         0.076711
 C        -0.133151        -2.566796         0.141722
 O        -1.722049        -0.747324        -0.961500
 H        -2.691629        -2.361964         0.760800
 H        -2.506484        -2.001953         2.601711
 H        -3.755737        -1.167180         1.436850
 H        -1.378673        -0.220625         2.076221
 H        -2.826431         1.100495        -0.414767
 H        -0.570987         1.787229        -0.831661
 H        -0.825464         1.685579         0.910871
 H         0.670305        -2.503188         0.875308
 H        -0.581832        -3.556942         0.427546
 H         0.243981        -2.708209        -0.853196
