19
Iteration:  2748charge 0 multiplicity 1
 C        -2.757600        -1.614624         1.537601
 C        -1.721515        -0.539805         1.154935
 C        -2.064275         0.398335        -0.054283
 C        -0.734765         1.219109        -0.177517
 C         0.300512        -0.013891         0.102608
 O         1.479363        -0.129544         0.201047
 C        -0.715930        -1.160420         0.101114
 C        -0.139205        -2.533474         0.192148
 O        -1.712754        -0.743187        -0.949915
 H        -2.968519        -2.320615         0.738444
 H        -2.410991        -2.221708         2.390085
 H        -3.792729        -1.348839         1.739856
 H        -1.360724         0.013898         2.049901
 H        -3.101075         0.830909        -0.186043
 H        -0.439415         1.778695        -1.140374
 H        -0.546139         1.887532         0.664255
 H        -0.082277        -3.070915         1.146770
 H        -0.954989        -3.148478        -0.323346
 H         0.612752        -2.538210        -0.648821
