19
Iteration:   602
 C        -2.829848        -1.549807         1.662827
 C        -1.775816        -0.555198         1.171576
 C        -2.039180         0.278497        -0.120823
 C        -0.762599         1.247722        -0.107240
 C         0.296019         0.098689         0.093757
 O         1.539170        -0.043580         0.153939
 C        -0.724144        -1.162063         0.113744
 C        -0.120433        -2.600108         0.113392
 O        -1.701222        -0.848074        -0.996328
 H        -2.564007        -2.015835         2.671569
 H        -3.805611        -1.042656         1.832423
 H        -2.899789        -2.452802         0.980360
 H        -1.238756         0.031087         1.954539
 H        -2.913480         0.795285        -0.364456
 H        -0.655245         1.898614        -1.000892
 H        -0.805524         1.925432         0.695475
 H         0.128063        -2.896111         1.144205
 H        -0.751310        -3.350133        -0.357831
 H         0.797472        -2.760040        -0.481774
