19
Iteration:  4806charge 0 multiplicity 1
 C        -2.728673        -1.564075         1.627303
 C        -1.748523        -0.609723         1.219708
 C        -1.973745         0.382904        -0.162231
 C        -0.689094         1.231404        -0.114795
 C         0.232700         0.009485         0.147956
 O         1.461462        -0.054498         0.283145
 C        -0.750506        -1.133208         0.079812
 C        -0.218922        -2.598135         0.017374
 O        -1.672654        -0.800653        -1.004376
 H        -3.597551        -1.824781         1.046427
 H        -2.245384        -2.440856         1.887829
 H        -3.042473        -1.388107         2.613905
 H        -1.415988         0.038437         1.976724
 H        -2.885604         0.994197        -0.395582
 H        -0.581071         1.509663        -1.240640
 H        -0.519983         2.178877         0.495174
 H         0.187661        -2.930706         0.948565
 H        -1.037376        -3.439679         0.042879
 H         0.265399        -2.677951        -0.888995
