19
Iteration:   953charge 0 multiplicity 1
 C        -2.902081        -1.571228         1.576955
 C        -1.730766        -0.664964         1.286932
 C        -1.901453         0.296990        -0.059427
 C        -0.649082         1.148464        -0.142713
 C         0.289652         0.046612         0.108125
 O         1.473888         0.213031         0.155138
 C        -0.722176        -1.196096         0.164086
 C        -0.283368        -2.626701        -0.066101
 O        -1.641181        -0.829382        -0.908300
 H        -2.662299        -2.062716         2.518360
 H        -3.760713        -0.938281         1.802192
 H        -3.182419        -2.212428         0.746579
 H        -1.204693        -0.346621         2.174081
 H        -2.896294         0.875405        -0.147218
 H        -0.612618         1.529349        -1.196030
 H        -0.510438         1.970685         0.654321
 H         0.675992        -2.778885         0.495439
 H        -0.941815        -3.378753         0.405749
 H        -0.205645        -3.026288        -1.088642
