19
Iteration:  1553
 C        -2.889207        -1.694030         1.666754
 C        -1.907820        -0.620096         1.214288
 C        -2.020619         0.380924        -0.008177
 C        -0.645640         1.190501        -0.128324
 C         0.296492        -0.012543         0.121355
 O         1.545852        -0.159101        -0.010754
 C        -0.762181        -1.097915         0.097731
 C        -0.045937        -2.462755         0.089825
 O        -1.718267        -0.672316        -0.926881
 H        -2.517474        -2.224041         2.607600
 H        -3.850474        -1.196376         1.941815
 H        -2.975304        -2.381821         0.801687
 H        -1.350963        -0.275313         2.125720
 H        -2.908478         0.875810        -0.235982
 H        -0.747907         1.746287        -1.137764
 H        -0.576755         1.824650         0.780202
 H         0.821753        -2.360797         0.778968
 H        -0.702628        -3.348281         0.315390
 H         0.489889        -2.605870        -0.896181
