19
Iteration:  2829
 C        -2.966044        -1.416698         1.645694
 C        -1.716642        -0.695610         1.215293
 C        -2.015558         0.356837        -0.055567
 C        -0.724514         1.201249        -0.108955
 C         0.247456        -0.006264         0.089048
 O         1.460295         0.033961         0.167934
 C        -0.660275        -1.240969         0.123338
 C        -0.150531        -2.581313        -0.018203
 O        -1.577344        -0.862305        -0.999903
 H        -3.532693        -1.711535         0.756898
 H        -2.691699        -2.321003         2.178095
 H        -3.454481        -0.759493         2.338684
 H        -1.405034        -0.104046         2.071151
 H        -2.977521         0.786176        -0.194811
 H        -0.551590         1.795442        -0.979402
 H        -0.557500         1.807683         0.892645
 H         0.287933        -2.631288         0.939036
 H        -0.877178        -3.319230        -0.077365
 H         0.696006        -2.740606        -0.580755
