19
Iteration:  4720
 C        -3.029677        -1.542091         1.480766
 C        -1.708610        -0.655771         1.222782
 C        -1.942460         0.302017         0.058533
 C        -0.681697         1.175318        -0.031149
 C         0.322701         0.024782        -0.002804
 O         1.483951        -0.012077         0.058802
 C        -0.705218        -1.187329         0.135984
 C        -0.161688        -2.541639         0.107591
 O        -1.621700        -0.770932        -0.925603
 H        -3.052164        -2.355084         0.639375
 H        -2.869803        -2.044881         2.538284
 H        -3.971819        -0.901029         1.437748
 H        -1.468868        -0.067499         2.224453
 H        -2.978944         0.811529         0.014975
 H        -0.599208         1.901823        -0.876189
 H        -0.570557         1.902836         0.831474
 H         0.796524        -2.560419         0.599203
 H        -1.013467        -3.277372         0.407341
 H         0.046255        -2.827605        -0.885463
