19
Iteration:  1046charge 0 multiplicity 1
 C        -2.944094        -1.576580         1.713192
 C        -1.780238        -0.675848         1.179119
 C        -2.045469         0.311193        -0.085473
 C        -0.745775         1.169029        -0.040546
 C         0.292434         0.065156         0.073905
 O         1.510461        -0.004010         0.119637
 C        -0.714024        -1.200699         0.126875
 C        -0.137366        -2.541144         0.038386
 O        -1.528135        -0.710113        -1.044646
 H        -2.560577        -2.424008         2.353764
 H        -3.612784        -1.106738         2.486608
 H        -3.645289        -2.042722         0.998192
 H        -1.429585        -0.071357         2.076849
 H        -2.949223         0.779228        -0.198029
 H        -0.515583         1.447250        -1.124909
 H        -0.589287         2.002237         0.646338
 H         0.907013        -2.533896         0.180702
 H        -0.600121        -3.195157         0.816130
 H        -0.592081        -3.077844        -0.782696
