19
Iteration:   522
 C        -2.961360        -1.609979         1.491056
 C        -1.882065        -0.581643         1.230279
 C        -1.954364         0.269284        -0.065055
 C        -0.690234         1.241823        -0.057365
 C         0.262401        -0.033755         0.085662
 O         1.444589         0.012626        -0.113926
 C        -0.692094        -1.154647         0.283729
 C        -0.124892        -2.509530         0.228134
 O        -1.539846        -0.815146        -0.920099
 H        -2.420236        -2.382063         2.010996
 H        -3.815101        -1.224920         2.068071
 H        -3.193790        -1.919291         0.486436
 H        -1.559224        -0.013767         2.121577
 H        -2.872391         0.777325        -0.350057
 H        -0.413285         1.809866        -0.966302
 H        -0.656270         1.800922         0.840613
 H         0.577457        -2.607475         1.088280
 H        -0.852830        -3.336266         0.295363
 H         0.469276        -2.563633        -0.687348
