19
Iteration:  3819
 C        -2.837402        -1.518239         1.498494
 C        -1.779809        -0.562360         1.201636
 C        -1.955654         0.296285        -0.017310
 C        -0.693335         1.194130        -0.051496
 C         0.296574         0.049614         0.096957
 O         1.500022         0.071309         0.069527
 C        -0.702080        -1.242682         0.154712
 C        -0.266057        -2.625240         0.030901
 O        -1.659214        -0.814410        -0.891014
 H        -3.443239        -1.724483         0.556236
 H        -2.472432        -2.477859         1.997116
 H        -3.411603        -1.073907         2.393699
 H        -1.171833        -0.158866         2.145557
 H        -2.946567         0.683138        -0.175734
 H        -0.506872         1.806302        -0.966043
 H        -0.737945         1.807065         0.824917
 H         0.425909        -2.827624         0.908613
 H        -0.946159        -3.449681         0.166713
 H         0.239822        -2.828538        -0.950311
