19
Iteration:  1379
 C        -2.960332        -1.555020         1.570875
 C        -1.659733        -0.645269         1.296602
 C        -2.033290         0.329887         0.051043
 C        -0.738685         1.258191        -0.096571
 C         0.249433         0.025992         0.055148
 O         1.508295         0.014824         0.086428
 C        -0.671063        -1.178907         0.146274
 C        -0.146269        -2.593695         0.017733
 O        -1.638585        -0.808572        -0.951650
 H        -2.687890        -2.251915         2.373440
 H        -3.779376        -0.862412         1.783630
 H        -3.338966        -2.090353         0.686920
 H        -1.040956        -0.465616         2.175080
 H        -3.077699         0.652865        -0.023779
 H        -0.753890         1.691620        -1.181915
 H        -0.385708         2.168033         0.431271
 H         0.838018        -2.658378         0.420353
 H        -0.851392        -3.332639         0.438056
 H        -0.087561        -2.883597        -1.023901
