19
Iteration:  4510charge 0 multiplicity 1
 C        -2.787600        -1.540550         1.538275
 C        -1.659092        -0.600649         1.158909
 C        -1.987278         0.305200        -0.035799
 C        -0.697403         1.160453        -0.081488
 C         0.296591         0.001163         0.127438
 O         1.470227         0.037311         0.225942
 C        -0.712939        -1.166211         0.113408
 C        -0.271930        -2.581380        -0.019318
 O        -1.680025        -0.777185        -0.949028
 H        -3.340993        -2.093828         0.712298
 H        -2.429736        -2.234809         2.348797
 H        -3.592581        -0.955010         2.152663
 H        -1.242723        -0.139133         2.064803
 H        -2.844661         0.894981        -0.272907
 H        -0.671378         1.540780        -1.080206
 H        -0.743560         1.751948         0.707475
 H         0.686858        -2.737203         0.515861
 H        -1.067934        -3.006409         0.494575
 H        -0.328337        -3.156323        -0.964326
