19
Iteration:  1459charge 0 multiplicity 1
 C        -2.813548        -1.601952         1.608571
 C        -1.721261        -0.612969         1.215486
 C        -2.033094         0.306677         0.091570
 C        -0.707821         1.214169        -0.117709
 C         0.259905         0.041002         0.055826
 O         1.508839         0.110405         0.039193
 C        -0.679984        -1.212689         0.142147
 C        -0.320849        -2.680075         0.079658
 O        -1.568777        -0.752243        -0.943635
 H        -2.653697        -2.556445         2.083574
 H        -3.466181        -1.031185         2.248004
 H        -3.361408        -1.765232         0.694743
 H        -1.231253        -0.149497         2.094231
 H        -2.904852         0.854334        -0.411074
 H        -0.758146         1.431045        -1.108833
 H        -0.640546         2.010112         0.590591
 H         0.066709        -3.042664         1.024625
 H        -1.170917        -3.249727        -0.271120
 H         0.513948        -2.715958        -0.653488
