19
Iteration:  4988charge 0 multiplicity 1
 C        -2.919178        -1.629155         1.405235
 C        -1.804753        -0.570982         1.208841
 C        -1.924107         0.386733         0.037646
 C        -0.707951         1.218224         0.011341
 C         0.266932        -0.017461         0.032316
 O         1.481360        -0.011499        -0.070942
 C        -0.701589        -1.165500         0.249166
 C        -0.233980        -2.575283         0.191835
 O        -1.583543        -0.790273        -0.858435
 H        -3.547628        -1.482141         0.435775
 H        -2.356634        -2.651439         1.393955
 H        -3.618500        -1.242878         2.219451
 H        -1.438438        -0.083024         2.214640
 H        -2.799128         0.774801        -0.456984
 H        -0.524914         1.550597        -1.008671
 H        -0.491495         1.935358         0.812350
 H         0.802542        -2.637548         0.613280
 H        -0.755642        -3.366483         0.610240
 H        -0.110918        -2.766584        -0.871861
