19
Iteration:  4750
 C        -2.932248        -1.439727         1.487514
 C        -1.655436        -0.653753         1.210908
 C        -1.985460         0.356710         0.013760
 C        -0.690419         1.226922        -0.069190
 C         0.249149        -0.002791         0.095217
 O         1.497408         0.060222         0.153830
 C        -0.711945        -1.248710         0.084123
 C        -0.116678        -2.677068         0.055214
 O        -1.732010        -0.810060        -0.912361
 H        -3.251382        -1.967977         0.620224
 H        -2.800975        -2.207403         2.166249
 H        -3.697751        -0.750257         1.768036
 H        -1.292344        -0.053904         2.010095
 H        -2.973169         0.792517         0.143602
 H        -0.384379         1.552151        -1.114585
 H        -0.696312         1.853849         0.859210
 H         0.866627        -2.702297         0.558707
 H        -0.929891        -3.396936         0.264973
 H         0.256913        -2.900668        -0.941916
