19
Iteration:  1493
 C        -2.938079        -1.563284         1.590621
 C        -1.734315        -0.692915         1.199024
 C        -1.941374         0.325873         0.120472
 C        -0.659924         1.185960        -0.086187
 C         0.319718         0.092404         0.014454
 O         1.581568         0.249861         0.031293
 C        -0.690907        -1.225640         0.074827
 C        -0.309049        -2.679702         0.106455
 O        -1.669817        -0.902084        -0.923213
 H        -2.845804        -2.550702         1.968281
 H        -3.425206        -0.946043         2.355388
 H        -3.704272        -1.527486         0.820019
 H        -1.219588        -0.288874         2.120140
 H        -2.940631         0.880806        -0.147223
 H        -0.794426         1.706180        -0.960940
 H        -0.406690         2.045238         0.520012
 H         0.021239        -3.181978         1.053844
 H        -1.088353        -3.287208        -0.318673
 H         0.499360        -2.763669        -0.652444
