19
Iteration:  1857
 C        -2.956708        -1.555447         1.464171
 C        -1.785415        -0.604380         1.266306
 C        -1.955946         0.301924         0.096197
 C        -0.683917         1.186215        -0.098646
 C         0.333464         0.065750        -0.016740
 O         1.553970         0.098439        -0.039075
 C        -0.620510        -1.184785         0.281432
 C        -0.229298        -2.637452         0.132797
 O        -1.705189        -0.827968        -0.909930
 H        -2.496132        -2.579423         1.375031
 H        -3.435256        -1.741387         2.438950
 H        -3.778716        -1.525969         0.702287
 H        -1.608685         0.008621         2.141251
 H        -2.943886         0.831774         0.052331
 H        -0.632831         1.851092        -1.054752
 H        -0.583840         1.959635         0.662264
 H         0.879572        -2.723404         0.353263
 H        -0.774825        -3.434023         0.721182
 H        -0.192746        -2.872281        -0.988594
