19
Iteration:  4778charge 0 multiplicity 1
 C        -2.889609        -1.573716         1.615598
 C        -1.756070        -0.679423         1.224634
 C        -2.040693         0.371299        -0.057725
 C        -0.699013         1.183226        -0.209099
 C         0.325227        -0.062171         0.028220
 O         1.499465        -0.009245         0.258053
 C        -0.718482        -1.138104         0.150196
 C        -0.206417        -2.523626         0.003189
 O        -1.595842        -0.748763        -0.926713
 H        -3.693199        -1.832778         0.863834
 H        -2.592671        -2.627870         2.062213
 H        -3.406029        -1.011228         2.479535
 H        -1.390021        -0.016188         2.082573
 H        -3.038699         0.832755        -0.211075
 H        -0.598211         1.504714        -1.231511
 H        -0.463866         1.899794         0.552581
 H         0.587343        -2.802368         0.756812
 H        -0.988398        -3.248235         0.111287
 H         0.179307        -2.539323        -1.098122
