19
Iteration:    28
 C        -2.879815        -1.578755         1.449442
 C        -1.689342        -0.520312         1.234235
 C        -1.935686         0.289447        -0.007489
 C        -0.720427         1.140520        -0.191994
 C         0.269930         0.013004         0.047719
 O         1.501760         0.187460         0.206880
 C        -0.651384        -1.185079         0.224405
 C        -0.158308        -2.611897         0.005880
 O        -1.764816        -0.927324        -0.802785
 H        -2.574871        -2.611917         1.747363
 H        -3.750971        -1.061429         1.900205
 H        -3.131602        -1.738590         0.380935
 H        -1.336626         0.113487         2.110827
 H        -2.892011         0.843074        -0.093747
 H        -0.695270         1.666024        -1.224244
 H        -0.703357         2.125428         0.553930
 H         0.754911        -3.007205         0.481141
 H        -0.839051        -3.395545         0.372889
 H        -0.211647        -2.697959        -1.101657
