19
Iteration:   758
 C        -2.831136        -1.503726         1.531739
 C        -1.814719        -0.548319         1.141667
 C        -2.013053         0.350741        -0.057544
 C        -0.800458         1.325008         0.048235
 C         0.220933        -0.023181         0.055717
 O         1.443072        -0.101076         0.066303
 C        -0.683153        -1.178730         0.163168
 C        -0.033919        -2.613256         0.120004
 O        -1.621574        -0.837203        -0.969022
 H        -2.632553        -1.985122         2.563731
 H        -3.882942        -1.055329         1.614594
 H        -2.671105        -2.357760         0.798573
 H        -1.312598         0.005248         2.039397
 H        -3.071508         0.763105        -0.355369
 H        -0.681597         1.845931        -0.872157
 H        -0.739381         1.924210         1.061193
 H         0.882798        -2.620295         0.728057
 H        -0.677247        -3.473171         0.462230
 H         0.333158        -2.779272        -0.911663
