19
Iteration:  4319
 C        -2.913852        -1.461809         1.503936
 C        -1.731896        -0.614646         1.221947
 C        -1.965641         0.335038         0.021139
 C        -0.680923         1.239357        -0.031805
 C         0.250315        -0.018381         0.067117
 O         1.480133        -0.006523         0.038333
 C        -0.721174        -1.252331         0.180171
 C        -0.098675        -2.594353         0.093297
 O        -1.751429        -0.805168        -0.971815
 H        -3.420969        -1.698551         0.519369
 H        -2.406250        -2.446727         1.805206
 H        -3.589225        -1.081022         2.353703
 H        -1.214445        -0.075143         2.058913
 H        -2.923604         0.828535        -0.080212
 H        -0.326958         1.850803        -0.885788
 H        -0.517165         1.669339         0.910363
 H         0.354153        -2.742349         1.085021
 H        -0.788048        -3.469346        -0.213301
 H         0.736451        -2.484169        -0.565759
