19
Iteration:  4175charge 0 multiplicity 1
 C        -2.869765        -1.484289         1.616962
 C        -1.760087        -0.574660         1.222151
 C        -2.035558         0.392550        -0.029930
 C        -0.637945         1.192766        -0.106742
 C         0.296299         0.019698         0.047356
 O         1.458357        -0.096161         0.194971
 C        -0.776664        -1.212547         0.108925
 C        -0.049112        -2.538633        -0.028644
 O        -1.722646        -0.824502        -0.921405
 H        -3.428923        -1.876219         0.700217
 H        -2.320629        -2.465305         1.849017
 H        -3.468759        -1.092391         2.496529
 H        -1.390495        -0.052369         2.089747
 H        -3.026629         0.800002        -0.349159
 H        -0.538094         1.704477        -1.009825
 H        -0.662584         1.771501         0.829322
 H         0.838192        -2.705623         0.592042
 H        -0.753369        -3.284199         0.301214
 H         0.198244        -2.649269        -1.108390
