19
Iteration:  2912charge 0 multiplicity 1
 C        -2.891470        -1.557882         1.329469
 C        -1.688367        -0.626627         1.210021
 C        -1.959973         0.336524         0.027124
 C        -0.738888         1.187162        -0.082147
 C         0.292641         0.014115         0.059188
 O         1.520693         0.039150         0.052124
 C        -0.669388        -1.188813         0.146760
 C        -0.259403        -2.639007         0.237522
 O        -1.648820        -0.746717        -0.845084
 H        -3.019560        -2.147826         0.376741
 H        -2.671458        -2.248322         2.195155
 H        -3.869284        -1.039614         1.574397
 H        -1.251194        -0.188567         2.159281
 H        -2.921470         0.864645        -0.214613
 H        -0.867425         1.613662        -1.131792
 H        -0.755812         2.082805         0.476790
 H         0.793006        -2.555541         0.646630
 H        -0.842163        -3.309137         1.023432
 H        -0.331706        -3.093697        -0.825408
