19
Iteration:  2679charge 0 multiplicity 1
 C        -3.015196        -1.425406         1.471177
 C        -1.776707        -0.659430         1.200767
 C        -2.012359         0.262116        -0.054104
 C        -0.694857         1.270219        -0.042990
 C         0.305964         0.032352         0.125192
 O         1.516653         0.122255         0.005387
 C        -0.638363        -1.226227         0.203869
 C        -0.163457        -2.649699         0.091173
 O        -1.566582        -0.902133        -0.867220
 H        -3.693139        -1.197953         0.684439
 H        -2.803456        -2.483037         1.509584
 H        -3.517485        -1.113935         2.380671
 H        -1.307914        -0.104759         1.974148
 H        -3.039770         0.446937        -0.272271
 H        -0.525974         1.955330        -0.743745
 H        -0.889145         1.741498         0.823013
 H         0.672286        -2.931105         0.776761
 H        -0.857244        -3.364850         0.419509
 H        -0.061702        -2.756758        -0.978380
