19
Iteration:  4625charge 0 multiplicity 1
 C        -3.034317        -1.535780         1.451453
 C        -1.636155        -0.704823         1.207051
 C        -1.945508         0.333943         0.070337
 C        -0.693633         1.064145        -0.067186
 C         0.348991        -0.000006         0.072370
 O         1.508228         0.106556         0.026439
 C        -0.769820        -1.203721         0.149131
 C        -0.198843        -2.594556         0.169589
 O        -1.668694        -0.687025        -0.918518
 H        -3.590818        -1.483808         0.547904
 H        -2.745684        -2.497285         1.906323
 H        -3.607263        -1.132352         2.278989
 H        -1.057140        -0.338058         2.039035
 H        -2.928395         0.849144        -0.205844
 H        -0.646243         1.433870        -1.152581
 H        -0.505513         2.044374         0.579833
 H         0.147990        -2.736688         1.198631
 H        -0.835775        -3.452673        -0.348380
 H         0.717147        -2.744314        -0.477164
