19
Iteration:  3327
 C        -2.806119        -1.575266         1.543598
 C        -1.686381        -0.533525         1.207677
 C        -2.010807         0.351033         0.024484
 C        -0.710960         1.148679        -0.197110
 C         0.338466         0.026795        -0.011489
 O         1.486948         0.096269         0.266617
 C        -0.715712        -1.211716         0.122713
 C        -0.237163        -2.664045         0.097040
 O        -1.725029        -0.811350        -0.927546
 H        -3.271179        -1.576586         0.560884
 H        -2.475142        -2.605262         1.678333
 H        -3.454400        -1.210012         2.291928
 H        -1.292516         0.015199         2.088316
 H        -3.010909         0.774804        -0.015979
 H        -0.607323         1.610644        -1.259509
 H        -0.340473         2.050772         0.424367
 H        -0.009538        -3.019968         1.055617
 H        -1.083454        -3.230712        -0.362605
 H         0.526360        -2.907645        -0.596059
