19
Iteration:   658
 C        -2.841324        -1.510566         1.741807
 C        -1.713717        -0.562220         1.161130
 C        -2.036758         0.303211        -0.183248
 C        -0.784043         1.187878        -0.131245
 C         0.287176        -0.011032         0.076218
 O         1.484387         0.093408         0.328026
 C        -0.663832        -1.224203         0.032560
 C        -0.129004        -2.605255         0.019198
 O        -1.677679        -0.844710        -1.026329
 H        -2.470570        -2.561967         2.010394
 H        -3.187073        -1.124275         2.729911
 H        -3.798810        -1.578280         1.175274
 H        -1.220792        -0.002435         2.007873
 H        -3.019509         0.755830        -0.435889
 H        -0.570960         1.591191        -1.090045
 H        -0.793683         2.032061         0.577415
 H         0.542787        -2.821961         0.827601
 H        -0.994014        -3.231449         0.348258
 H         0.412587        -3.009795        -0.852229
