19
Iteration:  3419
 C        -2.928167        -1.442484         1.560174
 C        -1.761152        -0.612039         1.188422
 C        -1.908211         0.255144        -0.021020
 C        -0.759879         1.172726        -0.036740
 C         0.282074         0.076070         0.090662
 O         1.477956        -0.051953         0.051999
 C        -0.696529        -1.207586         0.163864
 C        -0.106890        -2.547367         0.018068
 O        -1.646731        -0.825612        -0.885397
 H        -3.201467        -2.150439         0.746786
 H        -2.958466        -1.905675         2.569307
 H        -3.897984        -0.850224         1.513406
 H        -1.279928        -0.259288         2.095883
 H        -2.861521         0.801465        -0.206087
 H        -0.653906         1.823649        -0.964617
 H        -0.899457         2.010634         0.750748
 H         0.745191        -2.703458         0.707949
 H        -0.784638        -3.325126         0.271284
 H         0.270237        -2.778450        -0.985091
