19
Iteration:  2250
 C        -2.862398        -1.471785         1.627945
 C        -1.689218        -0.592167         1.276886
 C        -1.951091         0.271403         0.001055
 C        -0.717554         1.221286        -0.144754
 C         0.237168         0.036045         0.043485
 O         1.487619         0.037985         0.244471
 C        -0.637421        -1.218041         0.069141
 C        -0.226389        -2.606064        -0.206315
 O        -1.681028        -0.868489        -0.825880
 H        -2.613545        -2.073883         2.443247
 H        -3.719127        -0.803508         1.945385
 H        -3.202055        -2.018950         0.773218
 H        -1.173675        -0.048391         2.112094
 H        -3.092586         0.632925        -0.094332
 H        -0.643987         1.682225        -1.136737
 H        -0.702827         1.962521         0.694076
 H         0.423730        -2.805927         0.650476
 H        -1.129789        -3.168122        -0.192208
 H         0.343389        -2.801864        -1.168548
