19
Iteration:  4006charge 0 multiplicity 1
 C        -2.969121        -1.450522         1.457935
 C        -1.707086        -0.604035         1.256757
 C        -1.939727         0.318167         0.046165
 C        -0.732248         1.184072        -0.007224
 C         0.263932         0.013302        -0.027224
 O         1.436461        -0.050316         0.046435
 C        -0.756987        -1.192026         0.228870
 C        -0.023887        -2.580994         0.053964
 O        -1.651762        -0.785670        -0.913364
 H        -3.533652        -1.567788         0.538407
 H        -2.629421        -2.453207         1.821946
 H        -3.692654        -1.224060         2.257235
 H        -1.314015        -0.220094         2.107364
 H        -2.849728         0.833949        -0.225092
 H        -0.819678         1.731653        -0.970971
 H        -0.523485         1.786222         0.861702
 H         0.802410        -2.686855         0.752037
 H        -0.636180        -3.461623         0.324404
 H         0.250561        -2.657636        -0.981123
