19
Iteration:  3964
 C        -2.947011        -1.578896         1.587389
 C        -1.802503        -0.679948         1.196330
 C        -1.952156         0.295298         0.046255
 C        -0.677702         1.188950        -0.137593
 C         0.373409         0.102682        -0.012949
 O         1.543798         0.094891         0.124886
 C        -0.674873        -1.216749         0.167155
 C        -0.288448        -2.626234         0.043762
 O        -1.623764        -0.753124        -0.926580
 H        -3.326441        -2.138492         0.743932
 H        -2.809704        -2.382586         2.307226
 H        -3.832039        -1.072565         2.049306
 H        -1.280384        -0.170221         2.086018
 H        -2.946835         0.794397         0.032602
 H        -0.638147         1.724359        -1.032605
 H        -0.632598         1.894457         0.663161
 H         0.623841        -2.763088         0.584534
 H        -0.926636        -3.454826         0.434499
 H        -0.083934        -2.755118        -1.001506
