19
Iteration:  2772
 C        -2.770910        -1.534178         1.497027
 C        -1.661792        -0.548642         1.237273
 C        -1.915368         0.327816        -0.034089
 C        -0.706354         1.194338        -0.107970
 C         0.263279        -0.001249        -0.021835
 O         1.450291         0.026865         0.242876
 C        -0.701300        -1.194410         0.112297
 C        -0.296225        -2.570322         0.064410
 O        -1.677083        -0.858531        -0.868531
 H        -2.846335        -2.329315         0.737932
 H        -2.651420        -2.087912         2.441310
 H        -3.800051        -1.221651         1.440943
 H        -1.454343         0.072813         2.126285
 H        -2.818332         0.900080        -0.320356
 H        -0.641532         1.588551        -1.200185
 H        -0.678798         2.095169         0.610143
 H        -0.299257        -3.033595         1.029096
 H        -1.057719        -3.216984        -0.497251
 H         0.573308        -2.581067        -0.588273
