19
Iteration:  1005
 C        -2.803443        -1.613923         1.504859
 C        -1.621085        -0.549609         1.170409
 C        -2.048492         0.378384        -0.044427
 C        -0.663104         1.232467        -0.090413
 C         0.207359        -0.009440         0.031713
 O         1.417925        -0.112238         0.262301
 C        -0.669592        -1.082834         0.077691
 C        -0.129464        -2.465974         0.103045
 O        -1.797983        -0.887366        -0.919763
 H        -2.330033        -2.533318         1.905588
 H        -3.585120        -1.195320         2.132808
 H        -3.247155        -1.718264         0.528897
 H        -0.977163        -0.081370         1.953573
 H        -3.105261         0.745483        -0.151164
 H        -0.376190         1.666097        -1.136456
 H        -0.553221         1.914479         0.666223
 H         0.954463        -2.398016         0.149912
 H        -0.449002        -3.073054         0.993573
 H        -0.298012        -3.045388        -0.827114
