19
Iteration:  3335charge 0 multiplicity 1
 C        -2.765763        -1.571948         1.541389
 C        -1.707697        -0.524260         1.204898
 C        -2.006810         0.320579        -0.002823
 C        -0.710022         1.221628        -0.180144
 C         0.302297        -0.050967        -0.065222
 O         1.486711         0.077564         0.286329
 C        -0.629485        -1.142274         0.133859
 C        -0.311697        -2.652605         0.109627
 O        -1.719852        -0.812642        -0.935991
 H        -3.330271        -1.682385         0.610617
 H        -2.412583        -2.616481         1.716567
 H        -3.424526        -1.298122         2.359083
 H        -1.066741        -0.068007         1.995186
 H        -3.076885         0.759055        -0.104036
 H        -0.602166         1.530421        -1.166333
 H        -0.656418         1.917132         0.598535
 H        -0.008923        -3.019505         1.125029
 H        -1.146301        -3.306189        -0.394181
 H         0.633815        -2.690728        -0.513873
