19
Iteration:  3086
 C        -2.824353        -1.511832         1.608213
 C        -1.715656        -0.584773         1.201790
 C        -1.978088         0.346584        -0.094848
 C        -0.687827         1.132254        -0.040768
 C         0.313781         0.032001         0.030502
 O         1.491266         0.057612         0.216606
 C        -0.758211        -1.216091         0.097772
 C        -0.226379        -2.579131         0.076852
 O        -1.673051        -0.888618        -0.960727
 H        -3.106192        -2.154176         0.732598
 H        -2.502202        -2.180551         2.473338
 H        -3.788011        -1.046317         1.918557
 H        -1.223964         0.058617         1.943135
 H        -2.838368         0.929149        -0.486536
 H        -0.508615         1.642802        -1.111672
 H        -0.887527         2.174137         0.512539
 H         0.111378        -2.944270         1.017443
 H        -1.148747        -3.115732        -0.251001
 H         0.552737        -2.540528        -0.665996
