19
Iteration:    32charge 0 multiplicity 1
 C        -2.917321        -1.598571         1.503597
 C        -1.698003        -0.546134         1.257764
 C        -1.907251         0.253255         0.000657
 C        -0.738198         1.137365        -0.200949
 C         0.308650         0.029991         0.014128
 O         1.469801         0.181706         0.225458
 C        -0.631303        -1.165268         0.215700
 C        -0.159754        -2.592359         0.018479
 O        -1.745126        -0.880702        -0.846127
 H        -2.660733        -2.628833         1.775487
 H        -3.770152        -1.074635         1.926451
 H        -3.140263        -1.676224         0.437138
 H        -1.340150         0.062666         2.055231
 H        -2.820402         0.834537        -0.068539
 H        -0.689550         1.579659        -1.265989
 H        -0.664827         1.915104         0.388135
 H         0.812741        -3.031120         0.415004
 H        -0.901501        -3.323313         0.426863
 H        -0.271323        -2.729794        -1.131183
