19
Iteration:  3814charge 0 multiplicity 1
 C        -2.829714        -1.508417         1.540835
 C        -1.774656        -0.594283         1.206368
 C        -1.974316         0.303348        -0.042160
 C        -0.713721         1.184940        -0.025719
 C         0.321394         0.037843         0.097965
 O         1.487567         0.060237         0.049302
 C        -0.703431        -1.287374         0.158728
 C        -0.237846        -2.603184         0.062597
 O        -1.652589        -0.764607        -0.927611
 H        -3.348227        -1.814369         0.663082
 H        -2.386477        -2.390193         1.940661
 H        -3.641404        -1.263918         2.200126
 H        -1.371335        -0.057875         2.058239
 H        -3.026194         0.703138        -0.110213
 H        -0.363746         1.670981        -0.938385
 H        -0.631273         1.944980         0.846905
 H         0.508096        -2.803088         0.792225
 H        -1.136568        -3.289023         0.217740
 H         0.215237        -2.861176        -0.877179
