19
Iteration:  3610
 C        -2.829867        -1.557659         1.614285
 C        -1.732702        -0.648056         1.226479
 C        -1.954047         0.371298         0.030867
 C        -0.685702         1.201491        -0.266427
 C         0.299016         0.019432         0.029409
 O         1.460650         0.010342         0.248678
 C        -0.729529        -1.196264         0.107085
 C        -0.190262        -2.615212         0.027992
 O        -1.704070        -0.758389        -0.939892
 H        -3.092652        -2.276785         0.775968
 H        -2.490236        -2.234517         2.478927
 H        -3.791773        -1.176742         2.017393
 H        -1.340674        -0.082602         2.035409
 H        -2.972354         0.798247        -0.015572
 H        -0.571547         1.735365        -1.165158
 H        -0.359210         1.947084         0.449191
 H         0.220214        -2.843910         1.063638
 H        -1.118251        -3.216395        -0.244270
 H         0.516136        -2.619343        -0.844274
