19
Iteration:  3674charge 0 multiplicity 1
 C        -2.880146        -1.565482         1.616715
 C        -1.768817        -0.581778         1.125514
 C        -1.893069         0.291709        -0.069801
 C        -0.711783         1.237239        -0.061420
 C         0.213296         0.032731         0.075113
 O         1.473891         0.012276         0.093761
 C        -0.706766        -1.179510         0.102121
 C        -0.194212        -2.589709         0.115395
 O        -1.656444        -0.778833        -0.941087
 H        -3.636177        -1.664084         0.821427
 H        -2.302099        -2.479122         1.831350
 H        -3.394544        -1.205508         2.503340
 H        -1.260994        -0.206191         2.001478
 H        -2.923311         0.697427        -0.222443
 H        -0.369744         1.734002        -0.928116
 H        -0.462924         1.650321         0.941282
 H         0.322460        -2.836197         1.048006
 H        -1.017115        -3.347746         0.108231
 H         0.488848        -2.854847        -0.671393
