19
Iteration:  4852
 C        -2.826294        -1.562034         1.599995
 C        -1.649505        -0.652987         1.120686
 C        -2.015135         0.378418         0.030617
 C        -0.709237         1.241945        -0.135944
 C         0.300986         0.005679         0.075739
 O         1.478335         0.005183         0.268165
 C        -0.673715        -1.180431        -0.005122
 C        -0.231006        -2.632416         0.065102
 O        -1.705498        -0.758818        -0.951304
 H        -3.346327        -2.013411         0.738067
 H        -2.775496        -2.264425         2.433382
 H        -3.592586        -0.873016         2.012464
 H        -0.954462        -0.233055         1.854147
 H        -3.072613         0.758083        -0.149452
 H        -0.545003         1.413409        -1.204611
 H        -0.610694         2.074665         0.578804
 H        -0.002429        -2.814085         1.060970
 H        -1.060425        -3.377194         0.014092
 H         0.472986        -2.827654        -0.692947
