19
Iteration:  3539
 C        -2.950487        -1.525965         1.613686
 C        -1.823707        -0.621093         1.200364
 C        -2.053022         0.298144         0.006347
 C        -0.657425         1.147943        -0.119526
 C         0.285393        -0.048748         0.092392
 O         1.528474        -0.014340         0.092615
 C        -0.719412        -1.137748         0.129425
 C        -0.119929        -2.560781         0.057768
 O        -1.605574        -0.738391        -0.980970
 H        -3.458909        -2.090679         0.845909
 H        -2.627102        -2.192995         2.402003
 H        -3.729969        -0.938548         2.138799
 H        -1.189153        -0.173748         1.985453
 H        -3.067708         0.696366        -0.149744
 H        -0.428780         1.871247        -0.971147
 H        -0.681590         1.912650         0.765204
 H         0.880637        -2.516081         0.446256
 H        -0.663584        -3.235204         0.651438
 H        -0.106363        -2.950842        -0.945113
