19
Iteration:  4086charge 0 multiplicity 1
 C        -2.815270        -1.589588         1.510239
 C        -1.699366        -0.577978         1.233638
 C        -1.986609         0.290477         0.003271
 C        -0.708793         1.286802         0.025930
 C         0.310548         0.003546         0.033634
 O         1.563194         0.043975         0.000132
 C        -0.694971        -1.145499         0.151972
 C        -0.367274        -2.593354         0.097789
 O        -1.637093        -0.858544        -0.914720
 H        -3.019676        -2.353747         0.743937
 H        -2.643332        -2.428742         2.155284
 H        -3.743883        -0.995952         1.697416
 H        -1.418495         0.071337         1.994474
 H        -3.000801         0.799144        -0.108617
 H        -0.658497         1.812322        -0.851268
 H        -0.795981         1.995463         0.856680
 H         0.044699        -3.021692         0.991610
 H        -1.273932        -3.062997        -0.246023
 H         0.470761        -2.912982        -0.553877
