19
Iteration:    79
 C        -2.835339        -1.507748         1.765453
 C        -1.736451        -0.609470         1.163979
 C        -2.030542         0.252951        -0.168510
 C        -0.727344         1.166507        -0.061594
 C         0.195931         0.037612         0.098611
 O         1.417857         0.014231         0.279360
 C        -0.684091        -1.171713         0.057248
 C        -0.054924        -2.625889         0.073435
 O        -1.667775        -0.741889        -1.148999
 H        -2.255950        -2.156667         2.397015
 H        -3.575972        -0.929071         2.314193
 H        -3.294700        -2.144874         1.015336
 H        -1.285459        -0.102001         2.015823
 H        -2.977070         0.770039        -0.409709
 H        -0.540753         1.703450        -0.885401
 H        -0.768232         1.918480         0.763152
 H         0.908453        -2.578945         0.563983
 H        -0.646705        -3.388797         0.607705
 H         0.131036        -2.994240        -0.892488
