19
Iteration:  1020charge 0 multiplicity 1
 C        -2.756246        -1.542600         1.539768
 C        -1.785113        -0.532454         1.134008
 C        -1.954159         0.375242        -0.099237
 C        -0.678754         1.213245        -0.056573
 C         0.212108         0.016654         0.031940
 O         1.425072        -0.085714         0.215560
 C        -0.795738        -1.226988         0.112095
 C        -0.031068        -2.545034         0.085015
 O        -1.754450        -0.824411        -0.934123
 H        -2.213702        -2.395407         1.942851
 H        -3.310762        -1.253168         2.435131
 H        -3.463304        -1.968095         0.812600
 H        -1.478211        -0.027081         2.042399
 H        -2.908000         0.988872        -0.315240
 H        -0.493391         1.870261        -0.877096
 H        -0.588786         1.849464         0.966229
 H         1.084146        -2.304815         0.158384
 H        -0.275913        -3.244047         0.888356
 H        -0.394595        -3.093930        -0.798067
