19
Iteration:  1423
 C        -2.757923        -1.613941         1.636179
 C        -1.771210        -0.634924         1.199929
 C        -2.045922         0.399706        -0.052270
 C        -0.681163         1.201931        -0.009441
 C         0.253841         0.035632        -0.042375
 O         1.460350        -0.162810         0.108081
 C        -0.772397        -1.112505         0.131036
 C        -0.061631        -2.501953         0.075575
 O        -1.773294        -0.775205        -0.942633
 H        -2.376274        -2.233411         2.459891
 H        -3.746909        -1.170732         1.761593
 H        -2.870706        -2.181031         0.710124
 H        -1.382699         0.009776         1.938916
 H        -2.868575         0.969071        -0.428284
 H        -0.370768         1.939813        -0.826769
 H        -0.546531         1.932735         0.816120
 H         0.505759        -2.461422         0.958172
 H        -0.678485        -3.415256         0.170377
 H         0.597059        -2.714007        -0.746765
