19
Iteration:  3193
 C        -2.886354        -1.612193         1.347295
 C        -1.721123        -0.589413         1.232460
 C        -1.979894         0.391737         0.003189
 C        -0.658144         1.202463        -0.102394
 C         0.263803        -0.008271         0.095092
 O         1.499176         0.086599        -0.003257
 C        -0.660735        -1.191436         0.206302
 C        -0.264480        -2.582851         0.216374
 O        -1.637750        -0.821986        -0.834290
 H        -3.259084        -1.846492         0.363722
 H        -2.689852        -2.585687         1.777043
 H        -3.670836        -1.214308         1.984765
 H        -1.198956        -0.466760         2.188036
 H        -2.973906         0.829126        -0.440205
 H        -0.752719         1.514827        -1.125909
 H        -0.538959         1.949916         0.694464
 H         0.808767        -2.626013         0.463773
 H        -0.863843        -3.095672         0.997486
 H        -0.526236        -3.046637        -0.753463
