19
Iteration:   845charge 0 multiplicity 1
 C        -2.822543        -1.535674         1.351389
 C        -1.664869        -0.617111         1.214746
 C        -1.923966         0.365679         0.073860
 C        -0.749738         1.172769        -0.147749
 C         0.201262         0.019294         0.055925
 O         1.393567         0.020550        -0.015423
 C        -0.664671        -1.117451         0.229837
 C        -0.215746        -2.541122         0.188586
 O        -1.619070        -0.912618        -0.839471
 H        -2.415578        -2.559561         1.591686
 H        -3.630966        -1.322579         2.098816
 H        -3.382592        -1.613667         0.384260
 H        -1.375639        -0.143680         2.214134
 H        -2.943054         0.888580         0.252293
 H        -0.521044         1.757280        -1.020595
 H        -0.652946         1.950654         0.718144
 H        -0.107966        -2.946896         1.224918
 H        -0.869747        -3.172254        -0.470079
 H         0.819507        -2.563242        -0.190500
