19
Iteration:  4100charge 0 multiplicity 1
 C        -2.883356        -1.623251         1.550844
 C        -1.705113        -0.633383         1.190232
 C        -2.021998         0.345047         0.031688
 C        -0.714269         1.162655        -0.071685
 C         0.388382         0.089123         0.122828
 O         1.567173         0.091814         0.001718
 C        -0.710488        -1.185204         0.149470
 C        -0.329498        -2.631038         0.075973
 O        -1.660439        -0.780830        -0.917879
 H        -3.140082        -2.012796         0.582117
 H        -2.657902        -2.157596         2.455678
 H        -3.734672        -1.083014         1.883628
 H        -1.154248        -0.309623         2.166128
 H        -3.067862         0.688177        -0.207197
 H        -0.503155         1.595349        -1.070770
 H        -0.483330         1.887802         0.721150
 H        -0.137930        -2.928474         1.121788
 H        -1.139412        -3.289846        -0.190511
 H         0.460913        -2.687896        -0.672520
