19
Iteration:  4470charge 0 multiplicity 1
 C        -2.996671        -1.525115         1.509975
 C        -1.798636        -0.644869         1.238208
 C        -1.930526         0.343688         0.045691
 C        -0.697011         1.129429        -0.181413
 C         0.286872         0.046438         0.036309
 O         1.523230         0.022860         0.162689
 C        -0.674180        -1.178776         0.171214
 C        -0.160491        -2.578635        -0.026534
 O        -1.648096        -0.785628        -0.849285
 H        -3.596785        -1.734402         0.638501
 H        -2.616043        -2.462216         1.851702
 H        -3.570955        -1.044950         2.249193
 H        -1.353881        -0.294564         2.148656
 H        -2.909555         0.792278        -0.112774
 H        -0.714919         1.646895        -1.127610
 H        -0.323948         1.973019         0.608393
 H         0.865086        -2.723437         0.393270
 H        -0.790801        -3.275612         0.606625
 H        -0.112169        -2.817047        -1.061132
