19
Iteration:  2046charge 0 multiplicity 1
 C        -2.800502        -1.698197         1.721637
 C        -1.663299        -0.670872         1.194864
 C        -1.997886         0.404579         0.003272
 C        -0.744918         1.218553        -0.033841
 C         0.250349        -0.010006         0.081018
 O         1.467204        -0.035442         0.041359
 C        -0.678858        -1.169857         0.053092
 C        -0.271763        -2.548977        -0.029067
 O        -1.639514        -0.659624        -0.909634
 H        -3.668112        -1.003231         1.616356
 H        -3.078648        -2.604014         1.080758
 H        -2.596582        -1.981728         2.779546
 H        -1.168016        -0.299758         2.065509
 H        -2.904929         0.735662        -0.288263
 H        -0.704164         1.621955        -1.008405
 H        -0.494600         2.055629         0.633576
 H        -0.035427        -2.993707         0.958575
 H        -1.146634        -3.133167        -0.405607
 H         0.666388        -2.614694        -0.707112
