19
Iteration:  3806charge 0 multiplicity 1
 C        -2.875893        -1.567957         1.603292
 C        -1.725107        -0.616153         1.176168
 C        -2.009765         0.332847        -0.035165
 C        -0.718400         1.172703         0.015134
 C         0.257366        -0.026026         0.105753
 O         1.521319         0.041262         0.019637
 C        -0.716288        -1.164498         0.165844
 C        -0.207142        -2.645664         0.115221
 O        -1.628306        -0.716270        -0.993277
 H        -3.222077        -2.058012         0.624796
 H        -2.343779        -2.434919         2.068824
 H        -3.798837        -1.248556         2.074032
 H        -1.448177         0.089791         2.102937
 H        -2.963507         0.835316        -0.245575
 H        -0.467454         1.578113        -0.986673
 H        -0.506692         2.000830         0.741881
 H         0.611150        -2.805955         0.790879
 H        -1.128257        -3.173428         0.296893
 H         0.152823        -2.842338        -0.920766
