19
Iteration:  4706charge 0 multiplicity 1
 C        -2.994023        -1.669377         1.537519
 C        -1.843861        -0.642453         1.230553
 C        -1.994676         0.427055         0.022720
 C        -0.636520         1.294332        -0.055624
 C         0.276185         0.000482         0.075795
 O         1.502719        -0.044965        -0.017347
 C        -0.705065        -1.150639         0.220871
 C        -0.164071        -2.595972         0.091682
 O        -1.559757        -0.739988        -0.939842
 H        -3.179693        -2.436362         0.827460
 H        -2.978851        -2.171086         2.446069
 H        -3.878333        -1.067320         1.517415
 H        -1.338725        -0.279834         2.131957
 H        -2.915850         0.800268        -0.367931
 H        -0.579784         1.695004        -1.134189
 H        -0.313687         1.848892         0.870208
 H         0.782161        -2.694311         0.707746
 H        -0.862719        -3.314099         0.494525
 H         0.153832        -2.818287        -0.936305
