19
Iteration:   502charge 0 multiplicity 1
 C        -2.876644        -1.557867         1.530310
 C        -1.834253        -0.553953         1.100978
 C        -2.062128         0.376096        -0.151512
 C        -0.765459         1.136632         0.143447
 C         0.256214        -0.011061         0.083037
 O         1.425201        -0.092624        -0.092051
 C        -0.758200        -1.172369         0.205220
 C        -0.013115        -2.470315         0.309845
 O        -1.532143        -0.820920        -1.015607
 H        -2.353924        -2.490038         1.952077
 H        -3.365388        -0.940650         2.360246
 H        -3.541693        -1.829269         0.630935
 H        -1.470438        -0.042610         2.026626
 H        -2.939852         0.797908        -0.485094
 H        -0.575858         1.946185        -0.693203
 H        -0.698312         1.552025         1.063235
 H         0.779531        -2.378950         1.088861
 H        -0.592012        -3.359143         0.539213
 H         0.337805        -2.649220        -0.702995
