19
Iteration:  4449charge 0 multiplicity 1
 C        -3.008453        -1.550585         1.522673
 C        -1.676900        -0.702203         1.222033
 C        -1.992137         0.332640         0.036074
 C        -0.672831         1.194048        -0.067840
 C         0.266580        -0.033373         0.118801
 O         1.528264        -0.034092         0.081826
 C        -0.771760        -1.207344         0.149562
 C        -0.074981        -2.518556         0.080260
 O        -1.696297        -0.705211        -0.978754
 H        -3.590516        -1.708951         0.653433
 H        -2.893100        -2.485615         1.993216
 H        -3.508069        -0.904434         2.131510
 H        -1.109818        -0.265906         2.050748
 H        -2.981518         0.810141        -0.046323
 H        -0.605586         1.497626        -1.106272
 H        -0.562885         2.244257         0.270724
 H         0.800965        -2.537478         0.706848
 H        -0.680590        -3.299231         0.590734
 H         0.213778        -2.739047        -0.905950
