19
Iteration:  4274
 C        -2.891899        -1.587087         1.593078
 C        -1.786163        -0.619450         1.211126
 C        -2.061172         0.385443         0.002317
 C        -0.686258         1.234570        -0.093342
 C         0.303233         0.033058         0.136121
 O         1.580742        -0.082552         0.108039
 C        -0.772438        -1.170421         0.173401
 C        -0.115350        -2.588574         0.035511
 O        -1.693541        -0.739455        -0.994310
 H        -3.270991        -2.028594         0.591804
 H        -2.619569        -2.439469         2.323758
 H        -3.707656        -0.899781         2.078258
 H        -1.106428        -0.196922         2.059331
 H        -3.063541         0.774014        -0.135668
 H        -0.634950         1.439591        -1.156111
 H        -0.502401         2.092355         0.526253
 H         0.860158        -2.679843         0.550375
 H        -0.860217        -3.354679         0.374822
 H         0.059628        -2.842945        -1.003415
