19
Iteration:  3834
 C        -2.930971        -1.515280         1.537150
 C        -1.607168        -0.662702         1.226124
 C        -1.978368         0.392856        -0.013117
 C        -0.745978         1.204644        -0.092523
 C         0.331313         0.015242        -0.007238
 O         1.490611         0.081779         0.153071
 C        -0.686011        -1.163319         0.151453
 C        -0.207161        -2.654770         0.036992
 O        -1.689422        -0.891174        -0.866518
 H        -3.674606        -1.551417         0.769657
 H        -2.693257        -2.548168         1.729483
 H        -3.605323        -1.074958         2.324977
 H        -1.336947        -0.155036         2.056156
 H        -2.927028         0.937142        -0.274487
 H        -0.708924         1.807979        -0.995666
 H        -0.452321         1.885385         0.724361
 H         0.554908        -3.004658         0.771865
 H        -1.208131        -3.133229        -0.140336
 H         0.358109        -2.655016        -0.885850
