19
Iteration:  4521
 C        -2.819234        -1.583880         1.657578
 C        -1.729643        -0.656743         1.145052
 C        -1.962588         0.338454         0.014385
 C        -0.726882         1.218885        -0.054823
 C         0.280296        -0.016538         0.019992
 O         1.510961         0.008360         0.265893
 C        -0.669070        -1.168521        -0.014691
 C        -0.307781        -2.586206         0.086725
 O        -1.663330        -0.737086        -1.034789
 H        -3.195837        -2.229364         0.808662
 H        -2.453071        -2.284393         2.446678
 H        -3.659668        -0.880168         1.982875
 H        -1.276852        -0.114776         1.990565
 H        -2.954090         0.718495        -0.105922
 H        -0.579598         1.595808        -1.051762
 H        -0.598443         2.027676         0.531336
 H         0.676589        -2.703808         0.586383
 H        -0.961653        -3.240308         0.559851
 H        -0.110675        -2.812968        -0.971554
