19
Iteration:  2634charge 0 multiplicity 1
 C        -2.998813        -1.674597         1.440335
 C        -1.730923        -0.674213         1.255909
 C        -1.987690         0.449742        -0.028516
 C        -0.805303         1.295139        -0.129081
 C         0.345072        -0.022011         0.075334
 O         1.540503        -0.014912         0.034725
 C        -0.716024        -1.167881         0.214052
 C        -0.138873        -2.608830         0.186652
 O        -1.612074        -0.728343        -0.909471
 H        -3.434360        -1.889269         0.467360
 H        -2.625918        -2.517434         1.983595
 H        -3.697833        -1.099902         2.043351
 H        -1.351443        -0.261121         2.175179
 H        -2.944873         0.901943        -0.283833
 H        -0.632225         1.516128        -1.091441
 H        -0.547670         2.041966         0.540933
 H         0.820015        -2.663049         0.706034
 H        -0.686022        -3.315336         0.794875
 H        -0.131876        -3.025529        -0.790907
