19
Iteration:  4039charge 0 multiplicity 1
 C        -2.989574        -1.609970         1.560425
 C        -1.814287        -0.669572         1.194003
 C        -1.916154         0.369746         0.051582
 C        -0.674931         1.159004         0.012745
 C         0.319668         0.081508         0.099030
 O         1.509419        -0.090308        -0.042467
 C        -0.770362        -1.179412         0.123742
 C        -0.108412        -2.499446         0.148935
 O        -1.670658        -0.696723        -0.986969
 H        -3.487650        -2.203557         0.796343
 H        -2.481987        -2.504343         2.008104
 H        -3.734212        -1.107947         2.254485
 H        -1.310224        -0.306527         2.011479
 H        -2.829802         0.796022        -0.276667
 H        -0.663098         1.527969        -1.074812
 H        -0.520331         2.070777         0.583484
 H         0.569549        -2.474505         1.023944
 H        -0.880264        -3.317865         0.213403
 H         0.593689        -2.746293        -0.633727
