19
Iteration:  4870
 C        -2.886960        -1.509915         1.527179
 C        -1.719929        -0.651905         1.241505
 C        -1.918995         0.333156         0.050712
 C        -0.681307         1.180755        -0.185440
 C         0.281405         0.038268         0.079090
 O         1.463731         0.019122         0.175329
 C        -0.720977        -1.236999         0.178362
 C        -0.204301        -2.600439        -0.004863
 O        -1.666557        -0.731628        -0.931334
 H        -3.087875        -2.273071         0.770602
 H        -2.570927        -2.051680         2.414306
 H        -3.768899        -0.913618         1.636823
 H        -1.418253        -0.269181         2.216733
 H        -2.907090         0.788440        -0.111011
 H        -0.639912         1.399459        -1.302822
 H        -0.622273         1.952695         0.644582
 H         0.365671        -2.951701         0.954546
 H        -1.144294        -3.300851        -0.156970
 H         0.482456        -2.650784        -0.879528
