19
Iteration:  1845
 C        -2.883542        -1.594672         1.462382
 C        -1.744404        -0.576225         1.192116
 C        -1.959483         0.356237        -0.033124
 C        -0.711990         1.231112        -0.064845
 C         0.286627        -0.003331         0.077435
 O         1.466577         0.008446        -0.043466
 C        -0.685893        -1.197031         0.279956
 C        -0.104151        -2.604163         0.126809
 O        -1.750655        -0.776284        -0.857893
 H        -2.503631        -2.646058         1.379054
 H        -3.180918        -1.240455         2.449799
 H        -3.712866        -1.501819         0.736141
 H        -1.292834        -0.270351         2.130500
 H        -3.018739         0.820059        -0.137847
 H        -0.418989         1.722795        -1.083253
 H        -0.599570         1.814517         0.851160
 H         0.895360        -2.529575         0.615114
 H        -0.681287        -3.409201         0.658371
 H        -0.082863        -2.855037        -0.941795
