19
Iteration:  4534charge 0 multiplicity 1
 C        -2.838428        -1.607720         1.699005
 C        -1.701639        -0.664094         1.143765
 C        -2.056455         0.345125        -0.018604
 C        -0.664448         1.235347        -0.152923
 C         0.318634         0.088815         0.022368
 O         1.479548        -0.042824         0.268409
 C        -0.793533        -1.193475         0.045514
 C        -0.208959        -2.662547         0.067748
 O        -1.634780        -0.635961        -1.051401
 H        -3.175253        -2.410749         0.979500
 H        -2.464144        -2.085931         2.642893
 H        -3.808881        -1.146248         2.061904
 H        -1.087867        -0.358058         1.953821
 H        -2.993357         0.879594        -0.191182
 H        -0.773274         1.773368        -1.010509
 H        -0.403492         1.736313         0.727912
 H         0.606277        -2.590470         0.818826
 H        -1.026352        -3.316143         0.405666
 H         0.176775        -3.150550        -0.823826
