19
Iteration:   373charge 0 multiplicity 1
 C        -2.758689        -1.525779         1.853109
 C        -1.748577        -0.728088         1.011643
 C        -1.987694         0.386083        -0.097162
 C        -0.756619         1.271919        -0.165857
 C         0.198241         0.039694         0.074553
 O         1.373514        -0.029224         0.333802
 C        -0.753249        -1.254321        -0.026232
 C        -0.087097        -2.603034         0.140943
 O        -1.641029        -0.756116        -1.110162
 H        -2.115120        -1.979245         2.614516
 H        -3.436121        -0.807395         2.338527
 H        -3.321230        -2.274578         1.263954
 H        -1.178342        -0.325380         1.857783
 H        -2.995907         0.668437        -0.377143
 H        -0.565945         1.891598        -1.179566
 H        -0.726304         1.929567         0.666581
 H         0.669122        -2.488743         0.945053
 H        -0.697128        -3.470972         0.230572
 H         0.590273        -2.657283        -0.711377
