19
Iteration:  4579
 C        -2.825845        -1.507939         1.566026
 C        -1.754535        -0.555461         1.232444
 C        -1.961752         0.288096        -0.052593
 C        -0.730456         1.230325        -0.122686
 C         0.273716        -0.033228         0.076234
 O         1.526054        -0.088600         0.180682
 C        -0.701089        -1.174055         0.166448
 C        -0.184156        -2.519252        -0.042839
 O        -1.695920        -0.809101        -0.887995
 H        -3.227360        -1.940916         0.626237
 H        -2.592628        -2.253421         2.373681
 H        -3.714322        -0.997506         2.009480
 H        -1.511226         0.019516         2.110758
 H        -2.987657         0.725272        -0.236589
 H        -0.526209         1.748484        -1.032587
 H        -0.855537         1.824217         0.782569
 H         0.295054        -2.834835         0.874714
 H        -0.934544        -3.212423        -0.573195
 H         0.613695        -2.501055        -0.763902
