19
Iteration:  1672
 C        -2.801368        -1.570718         1.604782
 C        -1.731890        -0.606173         1.183041
 C        -2.012907         0.350361        -0.065440
 C        -0.825021         1.269651        -0.111133
 C         0.285283        -0.067660         0.055305
 O         1.459337        -0.174169         0.105792
 C        -0.684463        -1.134961         0.139542
 C        -0.137446        -2.442767         0.095142
 O        -1.677692        -0.773953        -0.927948
 H        -2.468155        -2.631505         1.794017
 H        -3.170275        -1.188314         2.575520
 H        -3.539210        -1.420961         0.808278
 H        -1.208389        -0.233912         2.161948
 H        -3.015001         0.653265        -0.184807
 H        -0.594241         1.887860        -1.014514
 H        -0.749336         1.769785         0.809179
 H         0.796722        -2.401755         0.757072
 H        -0.847640        -3.334142         0.264588
 H         0.406855        -2.547798        -0.909081
