19
Iteration:  3818
 C        -2.832664        -1.513904         1.504513
 C        -1.785644        -0.568677         1.200718
 C        -1.958518         0.296492        -0.022381
 C        -0.696722         1.191876        -0.047673
 C         0.305461         0.050016         0.097430
 O         1.494852         0.069182         0.065738
 C        -0.700562        -1.257763         0.155233
 C        -0.262321        -2.617725         0.036772
 O        -1.658369        -0.804726        -0.896845
 H        -3.430284        -1.739258         0.560414
 H        -2.456857        -2.465182         1.996368
 H        -3.448363        -1.112096         2.368516
 H        -1.183902        -0.126749         2.160212
 H        -2.962110         0.676862        -0.154828
 H        -0.471844         1.784360        -0.965077
 H        -0.723318         1.837443         0.840718
 H         0.428080        -2.822969         0.884786
 H        -0.970049        -3.422902         0.177917
 H         0.235438        -2.840525        -0.943247
