19
Iteration:  4962
 C        -2.989314        -1.614668         1.480917
 C        -1.834064        -0.699109         1.146843
 C        -1.989154         0.359970         0.028900
 C        -0.658342         1.232452         0.057483
 C         0.339780         0.036013         0.085442
 O         1.513953        -0.045041        -0.128969
 C        -0.683636        -1.147376         0.172166
 C        -0.148901        -2.555213         0.329702
 O        -1.657004        -0.713092        -1.016354
 H        -3.592878        -1.676072         0.615513
 H        -2.467907        -2.582532         1.606346
 H        -3.604993        -1.195361         2.262925
 H        -1.348719        -0.425483         2.092559
 H        -2.964368         0.777287        -0.335801
 H        -0.304651         1.930563        -0.763148
 H        -0.515528         1.831245         1.075337
 H         0.881200        -2.635161         0.691205
 H        -0.897689        -3.199914         0.894005
 H        -0.103335        -3.075433        -0.715982
