19
Iteration:  1478
 C        -3.004250        -1.563343         1.638345
 C        -1.688190        -0.776214         1.232220
 C        -1.923525         0.349335         0.035347
 C        -0.698215         1.182480        -0.179329
 C         0.318135         0.045157         0.007296
 O         1.554805         0.269951         0.031529
 C        -0.684123        -1.224571         0.212177
 C        -0.319529        -2.695158         0.042020
 O        -1.623911        -0.767473        -0.925911
 H        -2.446253        -2.501919         1.841807
 H        -3.520072        -1.109323         2.485145
 H        -3.657506        -1.872427         0.830804
 H        -1.256520        -0.411042         2.129000
 H        -2.939101         0.737948         0.062547
 H        -0.456168         1.557064        -1.233709
 H        -0.512382         1.872378         0.687383
 H        -0.125963        -2.984070         1.024407
 H        -1.296328        -3.130643        -0.173091
 H         0.547446        -3.037688        -0.480370
