19
Iteration:  1412
 C        -2.843116        -1.641566         1.614683
 C        -1.793527        -0.542518         1.187966
 C        -2.036045         0.453421         0.005243
 C        -0.652227         1.212833        -0.039899
 C         0.266780        -0.044363         0.005360
 O         1.460731        -0.133867         0.102151
 C        -0.772022        -1.192606         0.060023
 C        -0.002690        -2.474238         0.100832
 O        -1.764773        -0.758043        -0.990600
 H        -2.472322        -2.091546         2.556506
 H        -3.830864        -1.340526         1.971644
 H        -2.939588        -2.509291         0.957525
 H        -1.331721        -0.214667         2.106900
 H        -2.992670         0.939293         0.017881
 H        -0.673495         1.631291        -1.089759
 H        -0.313072         1.807276         0.823956
 H         0.750840        -2.351072         0.838142
 H        -0.647071        -3.323230         0.369524
 H         0.528116        -2.568281        -0.830690
