19
Iteration:  2998
 C        -2.889701        -1.477304         1.636777
 C        -1.762636        -0.597943         1.156575
 C        -2.064157         0.305555        -0.073219
 C        -0.691409         1.254879        -0.123945
 C         0.245301        -0.043020         0.079310
 O         1.463972        -0.079844         0.155439
 C        -0.748538        -1.174014         0.126114
 C        -0.068856        -2.557284         0.105814
 O        -1.593300        -0.799584        -0.978719
 H        -3.535402        -1.785015         0.776964
 H        -2.423653        -2.356784         2.159009
 H        -3.578288        -0.885972         2.292701
 H        -1.403752        -0.001863         2.037410
 H        -3.095004         0.702387        -0.354749
 H        -0.621961         1.987285        -1.013697
 H        -0.689333         1.699961         0.873769
 H         0.438095        -2.674978         1.047435
 H        -0.677944        -3.467662        -0.094690
 H         0.645559        -2.720179        -0.717835
