19
Iteration:  2488
 C        -2.824645        -1.604873         1.568800
 C        -1.690370        -0.646608         1.140852
 C        -2.043415         0.358916         0.004944
 C        -0.731033         1.150823        -0.161222
 C         0.265523         0.009504         0.017614
 O         1.493433        -0.081320         0.202214
 C        -0.718622        -1.169562         0.144057
 C        -0.132883        -2.487830         0.168524
 O        -1.698149        -0.726398        -0.989725
 H        -3.611037        -1.390258         0.817993
 H        -2.593306        -2.751768         1.611126
 H        -3.221025        -1.323300         2.581863
 H        -1.358819        -0.027429         2.080566
 H        -3.031976         0.878985        -0.173316
 H        -0.738862         1.728932        -1.121012
 H        -0.606670         1.987079         0.572846
 H         0.396870        -2.784220         1.077478
 H        -0.938126        -3.194309        -0.103281
 H         0.712082        -2.567247        -0.621437
