19
Iteration:  1327
 C        -2.891337        -1.579333         1.609626
 C        -1.760919        -0.649763         1.169350
 C        -1.911826         0.344322         0.003421
 C        -0.694234         1.179577        -0.068502
 C         0.277440         0.063811         0.078152
 O         1.508765         0.156342         0.069928
 C        -0.722272        -1.234586         0.106611
 C        -0.264923        -2.647269         0.054091
 O        -1.613219        -0.824117        -0.936308
 H        -2.510027        -2.550283         1.939388
 H        -3.420388        -1.158541         2.483569
 H        -3.556874        -1.707968         0.770430
 H        -1.295967        -0.213417         2.122502
 H        -2.865728         1.031783         0.034731
 H        -0.742301         1.700849        -0.973274
 H        -0.567528         2.000858         0.586740
 H         0.590397        -2.759536         0.701393
 H        -1.048218        -3.371242         0.458613
 H        -0.061983        -3.045279        -0.973728
