19
Iteration:  1795charge 0 multiplicity 1
 C        -2.905087        -1.545417         1.729796
 C        -1.760679        -0.739573         1.166592
 C        -2.046406         0.403097        -0.026051
 C        -0.734852         1.208519        -0.063641
 C         0.243154         0.012642         0.015715
 O         1.506928        -0.052397         0.042718
 C        -0.660304        -1.202023         0.078454
 C        -0.083242        -2.589515         0.092352
 O        -1.699210        -0.685353        -0.938610
 H        -2.442658        -2.145196         2.484870
 H        -3.749462        -0.876554         1.982861
 H        -3.181566        -2.172616         0.844630
 H        -1.316202        -0.224616         2.105498
 H        -2.860301         0.961818        -0.353052
 H        -0.539114         1.614870        -1.013537
 H        -0.634417         1.856918         0.807165
 H         0.443278        -2.727696         1.046083
 H        -0.748522        -3.448801         0.001140
 H         0.698325        -2.645849        -0.769048
