19
Iteration:  3680charge 0 multiplicity 1
 C        -2.912418        -1.545564         1.596024
 C        -1.738936        -0.601041         1.163666
 C        -1.956545         0.323085        -0.022680
 C        -0.653676         1.200916        -0.075236
 C         0.248142         0.025173         0.123243
 O         1.444560         0.035958         0.065394
 C        -0.688839        -1.204713         0.149705
 C        -0.179598        -2.627102         0.090149
 O        -1.638266        -0.794925        -0.994237
 H        -3.626278        -1.693817         0.785562
 H        -2.448867        -2.491908         1.901919
 H        -3.471448        -1.201940         2.488834
 H        -1.242352        -0.226684         2.126378
 H        -2.898877         0.805152        -0.259275
 H        -0.665551         1.867192        -1.015689
 H        -0.451764         1.848894         0.810884
 H         0.310472        -2.634139         1.115874
 H        -1.057178        -3.258817         0.152327
 H         0.462755        -2.759236        -0.824350
