19
Iteration:   348
 C        -2.747376        -1.511943         1.772873
 C        -1.756347        -0.511574         1.144052
 C        -2.111124         0.265811        -0.183251
 C        -0.802760         1.119640        -0.086959
 C         0.253729        -0.016523         0.054809
 O         1.444503        -0.056043         0.315833
 C        -0.648635        -1.130144         0.008607
 C        -0.128815        -2.465572         0.088700
 O        -1.645211        -0.860713        -1.054538
 H        -2.237448        -2.427493         2.159198
 H        -3.396678        -1.084957         2.605843
 H        -3.391491        -1.783557         0.912944
 H        -1.272692         0.150643         1.916949
 H        -3.054839         0.481974        -0.539235
 H        -0.438475         1.839193        -0.978817
 H        -0.734323         1.805416         0.794006
 H         0.679155        -2.547244         0.797814
 H        -0.900839        -3.267966         0.111112
 H         0.478206        -2.538955        -0.821952
