19
Iteration:  1198
 C        -2.911377        -1.507484         1.558298
 C        -1.704995        -0.620356         1.174095
 C        -1.997411         0.305643         0.016506
 C        -0.756954         1.173565        -0.010442
 C         0.329856         0.027444         0.040341
 O         1.536788         0.182394        -0.026177
 C        -0.695021        -1.274507         0.193264
 C        -0.257883        -2.678885         0.062422
 O        -1.607632        -0.783768        -0.885422
 H        -2.638528        -2.515097         1.952513
 H        -3.537576        -0.952873         2.289969
 H        -3.553775        -1.725030         0.698543
 H        -1.318040        -0.057584         2.011696
 H        -2.952185         0.581384        -0.326701
 H        -0.702265         1.662286        -0.986734
 H        -0.635226         1.746466         0.978477
 H        -0.221716        -3.155752         1.032068
 H        -0.965163        -3.319877        -0.555756
 H         0.818761        -2.778966        -0.199857
