19
Iteration:  4275
 C        -2.897536        -1.583452         1.595048
 C        -1.780764        -0.628882         1.204017
 C        -2.062294         0.379933         0.005033
 C        -0.683178         1.234896        -0.098463
 C         0.300664         0.033118         0.141828
 O         1.584758        -0.091745         0.104826
 C        -0.765077        -1.164243         0.185339
 C        -0.111312        -2.580767         0.036352
 O        -1.694998        -0.731048        -1.001008
 H        -3.305619        -2.002044         0.596115
 H        -2.610168        -2.432325         2.336193
 H        -3.752463        -0.920951         2.119325
 H        -1.142896        -0.238127         2.081617
 H        -3.072066         0.741722        -0.106423
 H        -0.675871         1.474836        -1.184570
 H        -0.533655         2.110950         0.486110
 H         0.860077        -2.650406         0.551975
 H        -0.876355        -3.366563         0.332656
 H         0.096718        -2.877392        -0.976630
