19
Iteration:  3639charge 0 multiplicity 1
 C        -2.735075        -1.578567         1.632097
 C        -1.749778        -0.609521         1.174350
 C        -1.959972         0.318095        -0.046969
 C        -0.734125         1.184051        -0.148059
 C         0.247054         0.013759         0.092898
 O         1.476115        -0.082270         0.196138
 C        -0.744207        -1.155560         0.059903
 C        -0.241955        -2.540871         0.140112
 O        -1.675343        -0.716863        -1.024363
 H        -3.329100        -2.033173         0.870394
 H        -2.216976        -2.476004         1.945727
 H        -3.332475        -1.327615         2.498420
 H        -1.246101         0.050142         1.950796
 H        -3.005834         0.727344        -0.091557
 H        -0.382760         1.714085        -1.046961
 H        -0.661970         2.132830         0.609403
 H         0.092764        -2.711760         1.114913
 H        -1.047071        -3.213097        -0.182589
 H         0.559324        -2.692961        -0.546867
