19
Iteration:  4918charge 0 multiplicity 1
 C        -3.017297        -1.540480         1.487661
 C        -1.729169        -0.622143         1.192620
 C        -1.967943         0.346711        -0.022275
 C        -0.677447         1.246207         0.076975
 C         0.267701         0.005721         0.148313
 O         1.485230        -0.053541        -0.080420
 C        -0.697232        -1.192687         0.238205
 C        -0.093702        -2.576738         0.120167
 O        -1.639089        -0.791475        -0.951105
 H        -3.243097        -2.070088         0.583286
 H        -2.910362        -2.254281         2.304143
 H        -3.824641        -0.830464         1.581646
 H        -1.374774        -0.126048         2.092991
 H        -2.919270         0.920527        -0.142002
 H        -0.645970         1.525888        -0.990667
 H        -0.594866         2.060430         0.863418
 H         0.876893        -2.633243         0.589213
 H        -0.749851        -3.447406         0.433260
 H         0.060213        -2.666741        -0.986250
