19
Iteration:   133
 C        -2.841355        -1.595973         1.557343
 C        -1.742044        -0.659012         1.254573
 C        -2.063287         0.304122         0.012177
 C        -0.693641         1.114574        -0.263131
 C         0.249245        -0.002955         0.065506
 O         1.436700         0.082476         0.201495
 C        -0.657913        -1.139619         0.177269
 C        -0.148135        -2.585467         0.087077
 O        -1.639135        -0.695510        -0.930073
 H        -2.508687        -2.346476         2.245673
 H        -3.758896        -1.100042         1.894761
 H        -2.992031        -2.076430         0.594329
 H        -1.405844        -0.126808         2.133600
 H        -3.065905         0.712281        -0.238708
 H        -0.651051         1.216342        -1.330066
 H        -0.518787         2.027248         0.200231
 H         0.519351        -2.736807         0.945965
 H        -0.966126        -3.339588        -0.043581
 H         0.579290        -2.681802        -0.701172
