19
Iteration:   775
 C        -2.876954        -1.523990         1.597603
 C        -1.738125        -0.581919         1.116786
 C        -2.029216         0.291489        -0.060002
 C        -0.787423         1.133233         0.039260
 C         0.240440        -0.014034         0.156182
 O         1.456363        -0.003207        -0.041593
 C        -0.732668        -1.241840         0.154305
 C        -0.093273        -2.572048         0.174160
 O        -1.555458        -0.699580        -1.027763
 H        -2.779501        -1.752582         2.632030
 H        -3.802548        -0.996686         1.524098
 H        -3.124097        -2.409841         1.065397
 H        -1.269844        -0.134298         1.956575
 H        -2.965072         0.685841        -0.282117
 H        -0.519550         1.992025        -0.690438
 H        -0.877407         1.723244         0.898598
 H         0.607695        -2.628293         1.007750
 H        -0.773005        -3.420887         0.301399
 H         0.525300        -2.743931        -0.728593
