19
Iteration:  3135
 C        -3.009624        -1.487916         1.626236
 C        -1.789878        -0.636343         1.172012
 C        -1.948966         0.242227         0.003249
 C        -0.683299         1.211108        -0.093025
 C         0.205444         0.016073         0.162137
 O         1.441101        -0.078074         0.063923
 C        -0.728779        -1.210360         0.145254
 C        -0.071723        -2.515310         0.095463
 O        -1.537561        -0.746203        -1.047509
 H        -3.622485        -1.970610         0.834311
 H        -2.661578        -2.205526         2.366198
 H        -3.791883        -0.846750         2.103437
 H        -1.118824        -0.199602         1.943480
 H        -2.997088         0.588977        -0.040954
 H        -0.692655         1.678601        -1.003016
 H        -0.564018         2.009627         0.537062
 H         0.909297        -2.242260         0.711053
 H        -0.655252        -3.285578         0.634886
 H         0.289091        -2.816093        -0.965230
