19
Iteration:  2135charge 0 multiplicity 1
 C        -3.019793        -1.552855         1.447775
 C        -1.698478        -0.736382         1.301576
 C        -2.024047         0.298144         0.145296
 C        -0.672312         1.196692        -0.074252
 C         0.305634         0.045421         0.018057
 O         1.556160         0.151729        -0.131604
 C        -0.659931        -1.186694         0.210039
 C        -0.275009        -2.660947         0.035005
 O        -1.598981        -0.706172        -0.791556
 H        -3.778822        -0.901875         2.037393
 H        -3.605735        -1.867135         0.545551
 H        -2.842675        -2.525058         2.014929
 H        -1.196417        -0.579547         2.235039
 H        -2.985739         0.613904        -0.043782
 H        -0.636416         1.646066        -1.050610
 H        -0.261090         1.787443         0.747597
 H         0.849796        -2.692625         0.294889
 H        -0.802358        -3.437994         0.719599
 H        -0.293506        -3.040516        -1.006930
