19
Iteration:  3914charge 0 multiplicity 1
 C        -2.704638        -1.546227         1.589086
 C        -1.713729        -0.530770         1.210428
 C        -2.067500         0.346674        -0.088247
 C        -0.722294         1.253061        -0.057671
 C         0.280032        -0.035669         0.098160
 O         1.489683        -0.095449         0.219317
 C        -0.726408        -1.180003         0.060768
 C        -0.212749        -2.546157         0.024440
 O        -1.692973        -0.794060        -1.009812
 H        -3.007122        -2.402195         0.977084
 H        -2.420528        -2.034224         2.526904
 H        -3.623692        -1.199912         2.016113
 H        -1.243504        -0.056184         1.957944
 H        -3.084964         0.789653        -0.197730
 H        -0.739343         1.938463        -0.943523
 H        -0.642186         1.849387         0.920503
 H         0.360110        -2.800482         0.922614
 H        -1.005471        -3.282295         0.102970
 H         0.295971        -2.741291        -0.957337
