19
Iteration:   644charge 0 multiplicity 1
 C        -2.806332        -1.559786         1.867531
 C        -1.808190        -0.637251         1.087585
 C        -1.987977         0.372279        -0.175618
 C        -0.751013         1.281616        -0.186459
 C         0.204651         0.034987         0.136540
 O         1.408529         0.001954         0.265796
 C        -0.772160        -1.188857         0.115316
 C        -0.083154        -2.713515         0.067668
 O        -1.571377        -0.774779        -1.060996
 H        -2.316995        -2.474197         2.157391
 H        -3.181210        -0.993384         2.700464
 H        -3.559594        -1.848061         1.134537
 H        -1.299170        -0.043351         1.863579
 H        -2.895411         0.756695        -0.467796
 H        -0.471047         1.601830        -1.275772
 H        -0.739046         2.056730         0.478503
 H         0.608733        -2.746794         0.918590
 H        -0.738205        -3.534584        -0.131152
 H         0.470455        -2.523278        -0.878951
