19
Iteration:  3428charge 0 multiplicity 1
 C        -2.994659        -1.423887         1.496116
 C        -1.693000        -0.644718         1.198439
 C        -2.055865         0.304675         0.022434
 C        -0.730134         1.171566        -0.072387
 C         0.284896         0.006370         0.102253
 O         1.510377        -0.010981         0.030214
 C        -0.654747        -1.221068         0.199166
 C        -0.103239        -2.588375         0.035375
 O        -1.639869        -0.816849        -0.861529
 H        -2.979676        -2.192440         0.716813
 H        -2.922415        -2.033976         2.390498
 H        -3.787142        -0.679613         1.518590
 H        -1.345584        -0.053040         2.096688
 H        -2.992288         0.778481        -0.189168
 H        -0.658819         1.789536        -1.096378
 H        -0.801754         1.874404         0.912840
 H         0.821279        -2.533780         0.603681
 H        -0.776029        -3.308350         0.319613
 H         0.107149        -2.696299        -1.020749
