19
Iteration:  1634
 C        -2.982180        -1.577380         1.602708
 C        -1.737263        -0.648400         1.265094
 C        -1.951750         0.364118         0.002540
 C        -0.677163         1.174591        -0.135826
 C         0.372364         0.003667         0.028280
 O         1.511434         0.195620         0.024404
 C        -0.727920        -1.206767         0.194583
 C        -0.264741        -2.677023         0.018424
 O        -1.603909        -0.810626        -0.892072
 H        -2.772054        -2.590226         1.931460
 H        -3.661744        -1.098402         2.308096
 H        -3.667792        -1.787073         0.783106
 H        -1.237434        -0.388144         2.143056
 H        -3.007097         0.850482        -0.113404
 H        -0.465029         1.720665        -1.026686
 H        -0.643019         1.955895         0.735978
 H         0.705017        -2.610074         0.475301
 H        -0.703341        -3.395513         0.636167
 H        -0.209341        -3.044267        -0.976965
