19
Iteration:   692charge 0 multiplicity 1
 C        -2.862991        -1.501639         1.473242
 C        -1.607504        -0.604468         1.236056
 C        -1.955004         0.340332        -0.011839
 C        -0.735284         1.230341        -0.259150
 C         0.261580         0.024621        -0.002677
 O         1.412869         0.173573         0.313475
 C        -0.619864        -1.258947         0.144657
 C        -0.185202        -2.698038         0.058106
 O        -1.705313        -0.882994        -0.872742
 H        -2.675150        -2.641427         1.504415
 H        -3.316548        -1.136363         2.437709
 H        -3.499405        -1.389503         0.566583
 H        -1.073506        -0.394671         2.218465
 H        -3.034824         0.736503        -0.195125
 H        -0.759060         1.530370        -1.219757
 H        -0.652889         2.033478         0.537195
 H         0.726880        -2.661619         0.619274
 H        -1.068755        -3.168727         0.550611
 H        -0.284818        -2.980444        -0.998040
