19
Iteration:  3881
 C        -2.826995        -1.540662         1.657078
 C        -1.732434        -0.626533         1.172090
 C        -1.992609         0.349567         0.025769
 C        -0.638319         1.205015        -0.192498
 C         0.220992        -0.046149         0.062521
 O         1.469499        -0.027469         0.241402
 C        -0.763501        -1.157362         0.130306
 C        -0.101845        -2.566622        -0.015498
 O        -1.735653        -0.763633        -0.979197
 H        -3.557423        -1.812579         0.859952
 H        -2.490699        -2.443774         2.162076
 H        -3.536376        -1.051783         2.284548
 H        -1.174162        -0.397949         2.044514
 H        -3.011942         0.787503        -0.069603
 H        -0.527343         1.583131        -1.241998
 H        -0.558047         2.104148         0.535155
 H         0.512475        -2.726118         0.856875
 H        -0.911306        -3.240038        -0.249937
 H         0.753776        -2.591875        -0.725981
