19
Iteration:  3467
 C        -3.025095        -1.600024         1.402998
 C        -1.704307        -0.702147         1.246963
 C        -1.979874         0.389539         0.020170
 C        -0.694227         1.224947        -0.146679
 C         0.304667         0.038691         0.109408
 O         1.560474         0.020204        -0.033849
 C        -0.705821        -1.147715         0.204994
 C        -0.192097        -2.590196         0.176228
 O        -1.649677        -0.755119        -0.843562
 H        -3.526883        -1.869237         0.456486
 H        -2.796368        -2.558159         1.958537
 H        -3.816435        -1.215624         2.091912
 H        -1.339204        -0.225351         2.203497
 H        -3.053294         0.718770        -0.145390
 H        -0.466687         1.704347        -1.035773
 H        -0.364642         1.953638         0.501971
 H         0.886283        -2.640065         0.469818
 H        -0.691965        -3.371467         0.912505
 H        -0.209734        -3.128465        -0.818946
