19
Iteration:  1664charge 0 multiplicity 1
 C        -2.842522        -1.546908         1.598110
 C        -1.743467        -0.596985         1.161742
 C        -2.033371         0.303146        -0.030095
 C        -0.744502         1.153001        -0.127807
 C         0.239227         0.036120         0.076913
 O         1.470683        -0.114388         0.074554
 C        -0.689023        -1.095778         0.210256
 C        -0.131723        -2.539950         0.036843
 O        -1.642292        -0.739563        -0.929198
 H        -2.509901        -2.583428         1.686191
 H        -3.200891        -1.201255         2.575180
 H        -3.774021        -1.719356         0.998304
 H        -1.304363        -0.241701         2.135676
 H        -3.007338         0.783378        -0.032430
 H        -0.490621         1.769343        -0.986390
 H        -0.707359         1.907262         0.703538
 H         0.743754        -2.540419         0.674431
 H        -0.754325        -3.297279         0.494047
 H         0.322047        -2.804900        -0.965255
