19
Iteration:  2693
 C        -2.983660        -1.439138         1.522647
 C        -1.748334        -0.571873         1.166224
 C        -1.965383         0.233791        -0.060492
 C        -0.784354         1.175790         0.016902
 C         0.297262         0.125021         0.098115
 O         1.491885         0.025187         0.044518
 C        -0.704582        -1.219892         0.181809
 C        -0.130138        -2.668591         0.109981
 O        -1.569650        -0.830355        -0.963827
 H        -3.798316        -1.487301         0.806850
 H        -2.789219        -2.520737         1.680339
 H        -3.388343        -1.159943         2.491591
 H        -1.442373        -0.136935         2.132170
 H        -2.888377         0.785727        -0.311489
 H        -0.639286         1.834877        -0.951556
 H        -0.586971         1.863397         0.876030
 H         0.713861        -2.662236         0.830576
 H        -0.973764        -3.374382         0.258967
 H         0.499619        -2.921253        -0.805241
