19
Iteration:  1002
 C        -2.787155        -1.609404         1.493800
 C        -1.625313        -0.586683         1.189512
 C        -2.040542         0.361681         0.001420
 C        -0.680364         1.236305        -0.146563
 C         0.227203         0.001890         0.040834
 O         1.438518        -0.109191         0.270393
 C        -0.691659        -1.089415         0.051505
 C        -0.134249        -2.450006         0.106445
 O        -1.797847        -0.867501        -0.915195
 H        -2.409708        -2.554352         1.944375
 H        -3.615291        -1.162993         2.104892
 H        -3.204478        -1.676331         0.468787
 H        -1.025983        -0.022812         1.976701
 H        -3.000117         0.674720        -0.227080
 H        -0.435898         1.650938        -1.131014
 H        -0.591892         1.910549         0.677539
 H         0.921464        -2.439680         0.233610
 H        -0.480191        -3.111065         0.921340
 H        -0.402916        -3.056983        -0.764507
