19
Iteration:  2965
 C        -2.993309        -1.509992         1.668663
 C        -1.885509        -0.645655         1.158258
 C        -2.069041         0.284984        -0.045691
 C        -0.629786         1.197964        -0.089382
 C         0.272879        -0.012284         0.202395
 O         1.520421        -0.002969         0.014612
 C        -0.722877        -1.183516         0.174329
 C        -0.070072        -2.614298         0.076597
 O        -1.518101        -0.744242        -1.021901
 H        -3.448958        -2.287800         1.016507
 H        -2.885461        -2.040097         2.649453
 H        -3.807506        -0.771274         1.932857
 H        -1.491523         0.009412         1.987245
 H        -3.131855         0.704814        -0.246056
 H        -0.467309         1.757630        -1.086087
 H        -0.647846         1.965926         0.695980
 H         0.834718        -2.671283         0.659014
 H        -0.856775        -3.238825         0.457255
 H         0.273883        -2.722305        -0.971998
