19
Iteration:  3771charge 0 multiplicity 1
 C        -2.979394        -1.671663         1.561329
 C        -1.780390        -0.637110         1.184981
 C        -1.993024         0.361914         0.019582
 C        -0.663421         1.282645         0.020396
 C         0.251138        -0.015678         0.043840
 O         1.492933        -0.097764        -0.034410
 C        -0.668892        -1.128958         0.126479
 C        -0.139390        -2.528835         0.173865
 O        -1.630436        -0.696096        -0.979432
 H        -2.856298        -2.500668         0.865706
 H        -2.760011        -2.016090         2.550582
 H        -3.964849        -1.275564         1.623989
 H        -1.134113        -0.154615         2.084913
 H        -3.000349         0.764816        -0.293976
 H        -0.756234         1.807035        -0.931240
 H        -0.463768         2.010881         0.903086
 H         0.726528        -2.670179         0.783212
 H        -0.810005        -3.332686         0.577509
 H         0.128249        -2.915432        -0.790450
