19
Iteration:   159charge 0 multiplicity 1
 C        -2.957094        -1.611334         1.415600
 C        -1.668554        -0.738204         1.228344
 C        -1.945256         0.363926         0.072809
 C        -0.659187         1.309474        -0.281721
 C         0.311154         0.094676        -0.019624
 O         1.530542         0.210772         0.150410
 C        -0.685560        -1.196545         0.172123
 C        -0.202440        -2.644417         0.186522
 O        -1.755524        -0.940628        -0.837869
 H        -2.718852        -2.551506         1.983432
 H        -3.728397        -1.060826         1.983084
 H        -3.263198        -1.864071         0.387599
 H        -1.306535        -0.319221         2.218101
 H        -2.988188         0.733415         0.043033
 H        -0.748005         1.686945        -1.288137
 H        -0.621016         2.046407         0.616122
 H         0.259138        -2.913799         1.124084
 H        -1.011122        -3.249361        -0.123587
 H         0.640652        -2.796654        -0.504065
