19
Iteration:  3239charge 0 multiplicity 1
 C        -2.938614        -1.563626         1.578972
 C        -1.810601        -0.613949         1.140897
 C        -1.908289         0.326495        -0.097289
 C        -0.718281         1.198464         0.008399
 C         0.284160         0.002321         0.084254
 O         1.459375        -0.032855         0.038059
 C        -0.732980        -1.201728         0.137913
 C        -0.121459        -2.522029         0.130263
 O        -1.601115        -0.761572        -0.956898
 H        -3.170925        -2.391754         0.942408
 H        -2.627441        -2.105394         2.493545
 H        -3.829494        -1.091808         1.909324
 H        -1.467671        -0.001557         1.965555
 H        -2.914379         0.773864        -0.174146
 H        -0.395958         1.718435        -0.942040
 H        -0.731812         1.725954         1.025942
 H         0.851945        -2.335703         0.448736
 H        -0.687285        -3.193756         0.789511
 H        -0.175971        -2.938403        -0.841108
