19
Iteration:    93charge 0 multiplicity 1
 C        -2.723093        -1.505439         1.725904
 C        -1.813881        -0.532128         1.067137
 C        -2.082205         0.271765        -0.182448
 C        -0.758424         1.160937        -0.007683
 C         0.271308        -0.035199        -0.003839
 O         1.426760        -0.028531         0.308875
 C        -0.734210        -1.187645         0.049503
 C        -0.084090        -2.475253         0.046065
 O        -1.629003        -0.853473        -1.020443
 H        -2.340548        -2.124276         2.561619
 H        -3.532858        -0.922606         2.211458
 H        -3.241767        -2.170687         1.013564
 H        -1.346944         0.143849         1.830672
 H        -3.074291         0.674803        -0.472661
 H        -0.509987         2.035724        -0.656069
 H        -0.566502         1.425472         1.126200
 H         0.780578        -2.418245         0.703814
 H        -0.750009        -3.221192         0.441141
 H         0.137883        -2.719931        -0.991072
