19
Iteration:  1313
 C        -2.869151        -1.609774         1.612648
 C        -1.716734        -0.699878         1.186200
 C        -2.036468         0.316526         0.025226
 C        -0.746034         1.213956        -0.099750
 C         0.308803         0.027523         0.011359
 O         1.494763         0.008666         0.093276
 C        -0.682340        -1.161162         0.125801
 C        -0.222622        -2.625707         0.118221
 O        -1.624142        -0.638604        -0.965035
 H        -2.380348        -2.530297         1.964331
 H        -3.446923        -1.068737         2.392525
 H        -3.707301        -1.929827         0.952833
 H        -1.204392        -0.274245         2.098222
 H        -3.039466         0.592312        -0.423006
 H        -0.577259         1.596174        -1.207288
 H        -0.582149         1.942791         0.729011
 H         0.616977        -2.657490         0.833831
 H        -1.074217        -3.273992         0.374823
 H         0.270105        -2.888046        -0.800721
