19
Iteration:  1245
 C        -2.893796        -1.549520         1.531633
 C        -1.756165        -0.644181         1.269185
 C        -1.988789         0.301181         0.051508
 C        -0.754391         1.212159        -0.115034
 C         0.324529        -0.014219         0.009593
 O         1.553758         0.034199         0.057385
 C        -0.676719        -1.163885         0.148374
 C        -0.186119        -2.576149         0.056937
 O        -1.703058        -0.751485        -0.888829
 H        -2.567838        -2.161847         2.403094
 H        -3.881078        -1.068052         1.779844
 H        -3.092171        -2.356143         0.764760
 H        -1.412633        -0.211517         2.222558
 H        -2.882799         0.843238        -0.001647
 H        -0.711284         1.496639        -1.258792
 H        -0.613313         1.941346         0.750814
 H        -0.006463        -3.209223         0.940781
 H        -0.833813        -3.105851        -0.593623
 H         0.798240        -2.511521        -0.405378
