19
Iteration:  4157charge 0 multiplicity 1
 C        -2.858119        -1.492847         1.565390
 C        -1.666463        -0.520763         1.122410
 C        -1.979707         0.278481        -0.032589
 C        -0.773070         1.221123        -0.031217
 C         0.309340        -0.022659         0.120005
 O         1.486653        -0.133165         0.154703
 C        -0.701715        -1.178350         0.129964
 C        -0.093041        -2.461601        -0.010717
 O        -1.804101        -0.840452        -0.913289
 H        -3.581973        -1.712624         0.844416
 H        -2.724130        -2.482049         1.864666
 H        -3.349035        -0.885267         2.252159
 H        -1.215792        -0.088834         2.055160
 H        -2.887027         0.818047        -0.088960
 H        -0.544917         1.499779        -1.130896
 H        -0.671168         1.940956         0.761506
 H         0.697992        -2.561565         0.756929
 H        -0.794895        -3.329751         0.069249
 H         0.526919        -2.547146        -0.878374
