19
Iteration:  4268charge 0 multiplicity 1
 C        -2.870426        -1.592864         1.577815
 C        -1.777569        -0.585324         1.228301
 C        -2.032656         0.391188        -0.002339
 C        -0.698733         1.214275        -0.066421
 C         0.326043         0.015966         0.103880
 O         1.529227        -0.038547         0.123778
 C        -0.776664        -1.193860         0.118253
 C        -0.148129        -2.607384         0.030579
 O        -1.685764        -0.766112        -0.949935
 H        -3.158063        -2.085914         0.682004
 H        -2.631539        -2.377055         2.261358
 H        -3.633979        -0.922275         1.936551
 H        -1.189540        -0.083895         1.957983
 H        -2.976922         0.916836        -0.265797
 H        -0.449537         1.444975        -1.149457
 H        -0.438387         2.020328         0.648486
 H         0.815307        -2.729298         0.530109
 H        -0.790587        -3.341490         0.537167
 H        -0.078738        -2.711184        -1.071210
