19
Iteration:  4372charge 0 multiplicity 1
 C        -2.896007        -1.642509         1.565252
 C        -1.760358        -0.722230         1.243935
 C        -1.972911         0.376482         0.008263
 C        -0.698568         1.237811        -0.083506
 C         0.242145         0.017867         0.034919
 O         1.503528         0.046296        -0.039106
 C        -0.680860        -1.211823         0.279502
 C        -0.340382        -2.679427         0.139238
 O        -1.511486        -0.636103        -0.950077
 H        -3.101322        -2.138862         0.653872
 H        -2.585015        -2.222214         2.375228
 H        -3.720163        -1.120141         1.870005
 H        -1.289482        -0.207713         2.112002
 H        -2.747592         0.976579        -0.422020
 H        -0.730702         1.553365        -1.096995
 H        -0.599646         2.041466         0.606692
 H        -0.020589        -3.033804         1.078331
 H        -1.089393        -3.177387        -0.444328
 H         0.528362        -2.783060        -0.431645
