19
Iteration:   878
 C        -2.969376        -1.661468         1.604315
 C        -1.830952        -0.644433         1.157236
 C        -1.994009         0.368265         0.031017
 C        -0.691578         1.129110        -0.105776
 C         0.311299         0.021035         0.034486
 O         1.511064        -0.038184         0.036646
 C        -0.639513        -1.181042         0.081590
 C        -0.017991        -2.519884         0.231261
 O        -1.767100        -0.653489        -0.999739
 H        -2.468002        -2.611442         1.935372
 H        -3.565658        -1.316843         2.483337
 H        -3.523511        -2.048880         0.725846
 H        -1.495118        -0.057794         2.073391
 H        -2.922098         1.058877         0.058490
 H        -0.577947         1.458595        -1.118751
 H        -0.591783         2.037076         0.620431
 H         0.009716        -2.755229         1.338184
 H        -0.566474        -3.358441        -0.226990
 H         1.008367        -2.514310        -0.173491
