19
Iteration:    84
 C        -2.803468        -1.511020         1.751947
 C        -1.751814        -0.564932         1.143844
 C        -2.069366         0.231847        -0.194840
 C        -0.723455         1.136283        -0.019548
 C         0.203437        -0.004676         0.053293
 O         1.422379        -0.000078         0.293980
 C        -0.706521        -1.123698         0.063703
 C        -0.063948        -2.584658         0.074156
 O        -1.660088        -0.776446        -1.119351
 H        -2.212101        -2.119772         2.505976
 H        -3.560232        -0.906360         2.297032
 H        -3.295675        -2.145910         0.982849
 H        -1.274194         0.038266         1.977546
 H        -3.017144         0.714986        -0.451844
 H        -0.477916         1.936079        -0.924721
 H        -0.662350         1.730010         1.020512
 H         0.973182        -2.516086         0.492890
 H        -0.753556        -3.304397         0.511534
 H         0.285768        -2.993434        -0.956758
