19
Iteration:  1063
 C        -2.958488        -1.523561         1.671825
 C        -1.756705        -0.743199         1.116387
 C        -1.928892         0.250039         0.013378
 C        -0.740335         1.250527        -0.107245
 C         0.254052         0.050194         0.175701
 O         1.468500         0.094907         0.054563
 C        -0.626286        -1.187150         0.153303
 C        -0.282746        -2.635617         0.032297
 O        -1.491332        -0.767467        -0.970304
 H        -2.766585        -2.212292         2.483277
 H        -3.614055        -0.732948         2.060695
 H        -3.475428        -2.086956         0.877814
 H        -1.174855        -0.509557         2.007612
 H        -3.010183         0.656036        -0.271697
 H        -0.841143         1.766772        -1.044387
 H        -0.690548         2.158562         0.676584
 H         0.884067        -2.702773         0.097920
 H        -0.674812        -3.255518         0.830459
 H        -0.560737        -2.893128        -1.010495
