19
Iteration:  1630charge 0 multiplicity 1
 C        -3.002108        -1.567534         1.564586
 C        -1.707534        -0.678017         1.255096
 C        -1.975185         0.349488         0.006557
 C        -0.662949         1.152587        -0.130244
 C         0.340292         0.058397         0.022692
 O         1.538117         0.201625         0.023974
 C        -0.729676        -1.230121         0.210804
 C        -0.266470        -2.668831         0.016784
 O        -1.608970        -0.804001        -0.877075
 H        -2.662704        -2.503061         2.095498
 H        -3.606682        -1.038057         2.335392
 H        -3.639399        -1.779190         0.680147
 H        -1.204281        -0.237907         2.190679
 H        -2.908988         0.812707        -0.101242
 H        -0.510742         1.738078        -1.074586
 H        -0.647655         1.762397         0.759548
 H         0.732514        -2.634819         0.470957
 H        -0.845428        -3.384087         0.674643
 H        -0.294910        -3.122576        -1.014294
