19
Iteration:  1621charge 0 multiplicity 1
 C        -2.956651        -1.502695         1.519636
 C        -1.704876        -0.702136         1.211722
 C        -1.945254         0.249097         0.046970
 C        -0.712717         1.149169        -0.087344
 C         0.320884         0.104367         0.034685
 O         1.557764         0.186305         0.021607
 C        -0.690695        -1.258960         0.169250
 C        -0.257354        -2.661992         0.086860
 O        -1.661466        -0.791832        -0.860783
 H        -2.626169        -2.332688         2.142465
 H        -3.578540        -0.843726         2.148562
 H        -3.398913        -1.839078         0.574798
 H        -1.397065        -0.164364         2.079909
 H        -2.906270         0.738471        -0.220164
 H        -0.743334         1.759802        -0.993670
 H        -0.400862         1.833620         0.802341
 H         0.736484        -2.966237         0.237487
 H        -1.024399        -3.180378         0.593578
 H        -0.406607        -2.875761        -0.992653
