19
Iteration:  4370charge 0 multiplicity 1
 C        -2.911253        -1.645493         1.560035
 C        -1.748013        -0.715569         1.255482
 C        -1.957745         0.361389         0.016507
 C        -0.679072         1.229373        -0.098050
 C         0.240775         0.033108         0.023259
 O         1.497637         0.048966        -0.034796
 C        -0.692402        -1.213880         0.274065
 C        -0.348898        -2.676733         0.146566
 O        -1.506615        -0.637542        -0.955315
 H        -3.114765        -2.136390         0.641609
 H        -2.585080        -2.231511         2.362159
 H        -3.709829        -1.103945         1.912561
 H        -1.282608        -0.210953         2.084775
 H        -2.761187         0.976614        -0.387506
 H        -0.833334         1.546457        -1.076213
 H        -0.655198         2.017552         0.700979
 H        -0.016177        -3.056296         1.110384
 H        -1.069543        -3.132795        -0.451046
 H         0.565219        -2.752666        -0.465784
