19
Iteration:  1023
 C        -2.758076        -1.545933         1.558014
 C        -1.820024        -0.555473         1.136248
 C        -1.947403         0.374246        -0.078153
 C        -0.689296         1.218491        -0.069951
 C         0.221351        -0.004299         0.045360
 O         1.439984        -0.075112         0.206601
 C        -0.802874        -1.216952         0.108932
 C        -0.026522        -2.550499         0.085220
 O        -1.744205        -0.800539        -0.943178
 H        -2.161726        -2.382461         1.963646
 H        -3.336219        -1.195476         2.454683
 H        -3.494485        -1.909693         0.808481
 H        -1.486013         0.053015         2.015893
 H        -2.803137         0.880382        -0.413704
 H        -0.524098         1.898010        -0.882423
 H        -0.645889         1.745362         0.920503
 H         1.032189        -2.342081         0.133564
 H        -0.252299        -3.295571         0.858224
 H        -0.366513        -3.118067        -0.777973
