19
Iteration:  4711
 C        -3.014292        -1.652667         1.514860
 C        -1.762345        -0.636032         1.246033
 C        -1.999277         0.396585         0.052616
 C        -0.638724         1.271048        -0.058376
 C         0.258042        -0.001293         0.057580
 O         1.516499        -0.033105         0.007480
 C        -0.702225        -1.168912         0.189199
 C        -0.152050        -2.570185         0.079444
 O        -1.575488        -0.763050        -0.958242
 H        -3.218837        -2.456805         0.699284
 H        -3.068918        -2.112677         2.614511
 H        -3.950116        -0.987958         1.531378
 H        -1.441502        -0.124329         2.249129
 H        -3.002567         0.761036        -0.346147
 H        -0.586715         1.905965        -0.929574
 H        -0.267221         1.910765         0.749711
 H         0.644876        -2.697142         0.786289
 H        -0.827314        -3.343009         0.579430
 H         0.028005        -2.818664        -0.976692
