19
Iteration:  3061
 C        -2.822582        -1.554635         1.514005
 C        -1.708448        -0.663676         1.228768
 C        -1.972443         0.315992         0.055345
 C        -0.711984         1.178451        -0.349525
 C         0.261803         0.037872         0.060479
 O         1.485758         0.087139         0.245376
 C        -0.637641        -1.236825         0.140522
 C        -0.294456        -2.667898         0.121324
 O        -1.646343        -0.709195        -0.911938
 H        -3.158235        -2.134318         0.669158
 H        -2.332028        -2.242846         2.155117
 H        -3.672396        -1.216726         2.124784
 H        -1.424265        -0.068929         2.076792
 H        -3.017459         0.760175        -0.210882
 H        -0.711965         1.623630        -1.368051
 H        -0.422566         2.209905         0.309470
 H        -0.248337        -3.121515         1.090438
 H        -1.204732        -2.982664        -0.258528
 H         0.623406        -2.821122        -0.442983
