19
Iteration:  2372
 C        -3.116037        -1.591559         1.557184
 C        -1.795011        -0.671701         1.304269
 C        -1.947061         0.297854         0.043153
 C        -0.689721         1.217826        -0.080352
 C         0.368583         0.011639         0.041091
 O         1.546301         0.056305        -0.047136
 C        -0.727285        -1.174845         0.193785
 C        -0.093239        -2.589261         0.073217
 O        -1.607845        -0.758736        -0.920701
 H        -3.052852        -2.587329         1.189768
 H        -3.221126        -1.662394         2.611106
 H        -3.953425        -1.104316         1.101475
 H        -1.461978        -0.201955         2.223362
 H        -2.892649         0.908155        -0.225182
 H        -0.629983         1.562640        -1.083828
 H        -0.842027         2.024831         0.696081
 H         0.719923        -2.695020         0.780921
 H        -0.854819        -3.394813         0.214671
 H         0.406925        -2.648838        -0.887624
