19
Iteration:  2443charge 0 multiplicity 1
 C        -2.872355        -1.689456         1.532617
 C        -1.854264        -0.536527         1.145503
 C        -1.932448         0.337484        -0.053796
 C        -0.725347         1.158330        -0.003520
 C         0.309557        -0.038654         0.038428
 O         1.484228        -0.022968        -0.012083
 C        -0.663626        -1.133810         0.231431
 C        -0.191326        -2.477642         0.191054
 O        -1.640123        -0.754488        -0.966317
 H        -3.394008        -2.119626         0.634029
 H        -2.356554        -2.555894         2.105182
 H        -3.639858        -1.186111         2.178656
 H        -1.670719        -0.148515         2.228942
 H        -2.812384         0.938892        -0.231934
 H        -0.607044         1.714618        -1.001110
 H        -0.534986         1.763666         0.877629
 H         0.605730        -2.539361         0.975534
 H        -0.952987        -3.179659         0.456358
 H         0.244775        -2.723380        -0.831563
