19
Iteration:  1201
 C        -2.926228        -1.510347         1.555316
 C        -1.695574        -0.614611         1.168068
 C        -1.967783         0.280252         0.023503
 C        -0.750451         1.181951        -0.022140
 C         0.342508         0.015763         0.036385
 O         1.506489         0.190980        -0.023442
 C        -0.711799        -1.293110         0.206431
 C        -0.255514        -2.683060         0.060407
 O        -1.591009        -0.765057        -0.885593
 H        -2.676161        -2.502601         2.023839
 H        -3.518446        -0.948061         2.314461
 H        -3.514476        -1.754680         0.635429
 H        -1.227032        -0.095329         2.030584
 H        -2.998594         0.507003        -0.167140
 H        -0.687973         1.743913        -1.070799
 H        -0.728719         1.893278         0.914772
 H        -0.312495        -3.204257         1.031350
 H        -0.959713        -3.236518        -0.528798
 H         0.790062        -2.772154        -0.252594
