19
Iteration:  1187
 C        -2.887705        -1.521735         1.566885
 C        -1.798173        -0.629037         1.230907
 C        -2.052482         0.337085        -0.051727
 C        -0.733649         1.123553         0.033263
 C         0.337443         0.047208         0.043190
 O         1.543829         0.116051        -0.028103
 C        -0.643679        -1.125681         0.109945
 C        -0.210977        -2.665990         0.119035
 O        -1.661736        -0.869208        -0.921552
 H        -2.500459        -2.502744         1.937043
 H        -3.470171        -1.110523         2.428768
 H        -3.541254        -1.649327         0.706934
 H        -1.418457        -0.197457         2.146352
 H        -2.812848         1.002094        -0.323796
 H        -0.531392         1.923006        -0.716033
 H        -0.452902         1.769635         0.974211
 H        -0.198424        -3.005285         1.131833
 H        -0.857791        -3.315405        -0.569946
 H         0.770627        -2.687753        -0.419828
