19
Iteration:  3532
 C        -2.961988        -1.587368         1.604517
 C        -1.794394        -0.551215         1.140479
 C        -1.971314         0.322795        -0.038076
 C        -0.691899         1.180868        -0.055377
 C         0.323740         0.026829         0.124885
 O         1.486956        -0.045227         0.066455
 C        -0.710882        -1.183208         0.135994
 C        -0.127654        -2.568288         0.094928
 O        -1.649021        -0.760095        -0.998615
 H        -3.648346        -2.032752         0.839813
 H        -2.393221        -2.251514         2.342548
 H        -3.700376        -1.034255         2.259103
 H        -1.221601        -0.250134         2.015005
 H        -3.033955         0.746803        -0.140721
 H        -0.503420         1.643100        -0.961204
 H        -0.505649         1.767220         0.820903
 H         0.908405        -2.398767         0.462739
 H        -0.725334        -3.185829         0.890115
 H        -0.141975        -2.843407        -0.984401
