19
Iteration:  1346charge 0 multiplicity 1
 C        -2.914463        -1.488144         1.501674
 C        -1.664433        -0.576890         1.253507
 C        -2.028245         0.265349        -0.017237
 C        -0.689824         1.152832        -0.044673
 C         0.311100         0.002275         0.068225
 O         1.537300         0.247910         0.072319
 C        -0.665991        -1.189435         0.227133
 C        -0.289797        -2.687141        -0.017672
 O        -1.689368        -0.881508        -0.891232
 H        -2.669770        -2.459441         1.976154
 H        -3.434950        -1.084507         2.372499
 H        -3.444687        -1.687459         0.556702
 H        -1.072040        -0.278232         2.134632
 H        -3.012677         0.607218        -0.428052
 H        -0.366944         1.730271        -1.033822
 H        -0.499899         1.769022         0.881941
 H         0.674237        -3.008864         0.368122
 H        -0.944445        -3.441253         0.439892
 H        -0.266467        -2.786895        -1.088106
