19
Iteration:  3692
 C        -2.936396        -1.525390         1.557901
 C        -1.742838        -0.710460         1.239027
 C        -2.012154         0.388627         0.032840
 C        -0.725159         1.167116        -0.060935
 C         0.266585        -0.019377         0.051933
 O         1.536413         0.057380         0.039062
 C        -0.738816        -1.200580         0.179471
 C        -0.184314        -2.587758         0.116381
 O        -1.576103        -0.768174        -0.977110
 H        -3.508824        -1.704036         0.671933
 H        -2.784022        -2.495360         1.994249
 H        -3.548312        -0.909530         2.237622
 H        -1.306396        -0.074438         2.103238
 H        -2.985901         0.877479        -0.172338
 H        -0.562552         1.492854        -1.177323
 H        -0.694127         2.084260         0.575313
 H         0.630787        -2.927834         0.827650
 H        -0.899998        -3.411872         0.069629
 H         0.404136        -2.743498        -0.794655
