19
Iteration:  2565
 C        -2.943287        -1.568811         1.676636
 C        -1.695255        -0.640647         1.174215
 C        -2.072465         0.347650         0.014159
 C        -0.661491         1.209044        -0.092240
 C         0.260497         0.030660         0.071502
 O         1.501228         0.028338         0.186419
 C        -0.648743        -1.184901         0.114110
 C        -0.206067        -2.564808         0.011998
 O        -1.595346        -0.805798        -1.031947
 H        -3.156922        -2.426482         0.990308
 H        -2.629226        -1.952562         2.697492
 H        -3.828170        -0.893851         1.704751
 H        -1.314174        -0.332498         2.182053
 H        -3.067283         0.773150        -0.328985
 H        -0.666421         1.505517        -1.134693
 H        -0.567273         2.069386         0.618987
 H         0.284990        -2.916742         0.879690
 H        -1.059773        -3.275642        -0.062471
 H         0.346539        -2.686415        -0.937848
