19
Iteration:  3598
 C        -2.901179        -1.538189         1.580394
 C        -1.674686        -0.539039         1.231754
 C        -1.967113         0.271726         0.032922
 C        -0.630260         1.162399        -0.185653
 C         0.283836        -0.016048        -0.010853
 O         1.516740         0.065039         0.253903
 C        -0.719102        -1.192327         0.114492
 C        -0.226200        -2.561309        -0.025526
 O        -1.746594        -0.796736        -0.897623
 H        -3.014567        -2.290455         0.752089
 H        -2.520764        -2.071543         2.524453
 H        -3.827211        -0.922260         1.713274
 H        -1.245156        -0.221727         2.143937
 H        -2.941283         0.850194        -0.087983
 H        -0.684339         1.413328        -1.178000
 H        -0.826059         1.955784         0.537220
 H         0.429112        -2.968987         0.787214
 H        -0.973196        -3.436459        -0.175666
 H         0.526142        -2.682181        -0.835949
