19
Iteration:  2114
 C        -2.990813        -1.533005         1.487883
 C        -1.694237        -0.679370         1.267597
 C        -1.917729         0.277779         0.193306
 C        -0.762994         1.220827         0.046177
 C         0.291073        -0.000224         0.036411
 O         1.519498         0.007818        -0.117462
 C        -0.664878        -1.154093         0.109131
 C        -0.139646        -2.597815         0.060635
 O        -1.687683        -0.733679        -0.904113
 H        -3.840299        -0.759711         1.405191
 H        -3.212262        -2.233875         0.658095
 H        -2.919500        -2.147734         2.419896
 H        -1.256775        -0.211272         2.155152
 H        -2.807713         0.880274         0.081911
 H        -0.928832         1.728834        -0.913584
 H        -0.662013         1.953316         0.847896
 H         0.923135        -2.809612         0.465211
 H        -0.833844        -3.415336         0.546938
 H         0.012397        -2.818902        -1.012703
