19
Iteration:   588charge 0 multiplicity 1
 C        -2.833238        -1.516804         1.484602
 C        -1.694631        -0.598339         1.128410
 C        -1.958064         0.363259        -0.041885
 C        -0.724649         1.244647        -0.107353
 C         0.259096         0.003130         0.014214
 O         1.481613         0.123573         0.117517
 C        -0.677280        -1.230738         0.148230
 C        -0.149254        -2.679189         0.145211
 O        -1.749640        -0.873618        -0.847215
 H        -2.645652        -1.753926         2.518492
 H        -3.845835        -1.108629         1.403973
 H        -2.959970        -2.401556         0.868399
 H        -1.397754        -0.165480         2.096419
 H        -2.999725         0.638866        -0.134781
 H        -0.531264         1.880067        -1.044296
 H        -0.629301         1.825234         0.772977
 H         0.024329        -2.999261         1.220924
 H        -0.979691        -3.281051        -0.201614
 H         0.818026        -2.702448        -0.359074
