19
Iteration:   876
 C        -2.972133        -1.665375         1.597222
 C        -1.828649        -0.631989         1.161679
 C        -1.988052         0.352138         0.019549
 C        -0.699057         1.140634        -0.096813
 C         0.306880         0.013336         0.021803
 O         1.520163        -0.041651         0.038305
 C        -0.638430        -1.151687         0.076694
 C        -0.018850        -2.533318         0.245203
 O        -1.772549        -0.651427        -0.979292
 H        -2.513478        -2.632162         1.885015
 H        -3.573841        -1.362207         2.440097
 H        -3.500506        -2.023016         0.746950
 H        -1.466293        -0.089624         2.041770
 H        -2.897782         1.020581         0.075826
 H        -0.601988         1.531308        -1.187703
 H        -0.600630         2.030394         0.567007
 H         0.038022        -2.799197         1.316693
 H        -0.566751        -3.378263        -0.256536
 H         1.006355        -2.528750        -0.159439
