19
Iteration:  2264charge 0 multiplicity 1
 C        -2.831338        -1.446827         1.604338
 C        -1.599860        -0.614588         1.215827
 C        -1.982333         0.318220         0.006606
 C        -0.803281         1.124933        -0.167785
 C         0.288981         0.035105         0.089908
 O         1.498517         0.124349         0.245912
 C        -0.649597        -1.163960         0.130967
 C        -0.281817        -2.696750        -0.147901
 O        -1.686232        -0.847803        -0.830983
 H        -2.505434        -2.400668         2.004942
 H        -3.494503        -0.902445         2.276233
 H        -3.439605        -1.730731         0.724399
 H        -1.197129        -0.223054         2.194482
 H        -2.872080         0.842578        -0.342993
 H        -0.650012         1.558039        -1.114184
 H        -0.657063         2.009060         0.538266
 H         0.240534        -3.345044         0.503198
 H        -1.178627        -3.262233        -0.447148
 H         0.300149        -2.680290        -1.021185
