19
Iteration:  3815
 C        -2.828250        -1.507833         1.530915
 C        -1.782026        -0.588694         1.204307
 C        -1.969411         0.300741        -0.037989
 C        -0.709569         1.185850        -0.032845
 C         0.322259         0.043024         0.097764
 O         1.486256         0.062433         0.053539
 C        -0.701293        -1.286420         0.157623
 C        -0.243639        -2.603482         0.056431
 O        -1.654454        -0.774243        -0.919066
 H        -3.368795        -1.791217         0.636389
 H        -2.407435        -2.402392         1.955165
 H        -3.585044        -1.234184         2.239902
 H        -1.311759        -0.065684         2.101429
 H        -3.018160         0.691715        -0.114236
 H        -0.383185         1.698585        -0.944311
 H        -0.656414         1.929841         0.862777
 H         0.471712        -2.804955         0.802413
 H        -1.096078        -3.327909         0.209303
 H         0.219375        -2.859122        -0.891504
