19
Iteration:  1975charge 0 multiplicity 1
 C        -2.811353        -1.556279         1.643237
 C        -1.648351        -0.654685         1.228642
 C        -2.021807         0.379847         0.048246
 C        -0.725447         1.144418        -0.159281
 C         0.270187        -0.000723        -0.023844
 O         1.429275        -0.028160         0.175321
 C        -0.708203        -1.200785         0.193914
 C        -0.166605        -2.581830        -0.049486
 O        -1.696062        -0.708034        -0.940917
 H        -2.911323        -1.517086         2.727274
 H        -3.781175        -1.335849         1.266971
 H        -2.581958        -2.600577         1.395853
 H        -1.121786        -0.242023         2.144633
 H        -3.049320         0.986243        -0.034635
 H        -0.631908         1.579487        -1.236668
 H        -0.598137         2.080455         0.416867
 H         0.296419        -2.939649         0.853129
 H        -0.958330        -3.240902        -0.384658
 H         0.570891        -2.390812        -0.748276
