19
Iteration:  3115
 C        -2.917126        -1.487003         1.678734
 C        -1.756111        -0.634755         1.131337
 C        -2.078469         0.377715        -0.111413
 C        -0.735241         1.178413        -0.044000
 C         0.237362        -0.017368         0.015423
 O         1.478159        -0.075363         0.156853
 C        -0.719670        -1.228270         0.152802
 C        -0.022166        -2.593199         0.091901
 O        -1.572418        -0.746984        -0.987313
 H        -3.506212        -2.100771         1.021597
 H        -2.689002        -2.050888         2.536797
 H        -3.704483        -0.771447         1.959367
 H        -1.341734         0.006668         1.923933
 H        -3.072614         0.896407        -0.439933
 H        -0.511978         1.771459        -0.906671
 H        -0.880227         1.803389         0.823322
 H         0.715028        -2.557265         0.903708
 H        -0.789338        -3.334991         0.153009
 H         0.418341        -2.697083        -0.942524
