19
Iteration:  4466
 C        -2.992380        -1.518291         1.526043
 C        -1.787988        -0.694356         1.213127
 C        -1.965872         0.342017         0.060643
 C        -0.682463         1.151194        -0.193413
 C         0.274083         0.039750         0.060338
 O         1.534598         0.012513         0.146673
 C        -0.652619        -1.161667         0.139574
 C        -0.160134        -2.562951         0.027867
 O        -1.651620        -0.756587        -0.852093
 H        -3.592650        -1.641224         0.561322
 H        -2.679222        -2.541194         1.934029
 H        -3.685177        -1.015510         2.334246
 H        -1.417903        -0.368431         2.204089
 H        -2.946475         0.765710        -0.132058
 H        -0.564479         1.429588        -1.272065
 H        -0.408285         1.773272         0.652424
 H         0.920534        -2.531925         0.363376
 H        -0.812983        -3.321188         0.446183
 H        -0.100799        -2.827998        -1.083230
