19
Iteration:  3851
 C        -2.940468        -1.490164         1.566988
 C        -1.739149        -0.625296         1.238618
 C        -1.955761         0.227660         0.083684
 C        -0.665422         1.177977        -0.212083
 C         0.300659         0.023726         0.021790
 O         1.467394         0.066493         0.193907
 C        -0.661488        -1.158700         0.140787
 C        -0.152372        -2.630902        -0.044074
 O        -1.713042        -0.770168        -0.894014
 H        -3.684614        -1.411822         0.710562
 H        -2.659379        -2.569500         1.713634
 H        -3.373060        -0.937117         2.429847
 H        -1.091417        -0.432873         2.231509
 H        -2.954214         0.628701         0.006187
 H        -0.663992         1.617687        -1.241195
 H        -0.614926         1.965163         0.543713
 H         0.324725        -2.830211         0.966319
 H        -0.980522        -3.302268        -0.137210
 H         0.624104        -2.797184        -0.841000
