19
Iteration:  1426charge 0 multiplicity 1
 C        -2.751351        -1.625927         1.627995
 C        -1.751213        -0.608769         1.191057
 C        -2.025695         0.353805        -0.058695
 C        -0.684165         1.229497        -0.029424
 C         0.277584         0.024570        -0.012640
 O         1.433946        -0.154534         0.097922
 C        -0.757413        -1.114099         0.121765
 C        -0.098459        -2.508209         0.087075
 O        -1.769138        -0.765419        -0.920571
 H        -2.363354        -2.270777         2.381343
 H        -3.666449        -1.076825         1.738775
 H        -2.960163        -2.205330         0.746826
 H        -1.305577         0.038459         1.989515
 H        -2.905433         0.957265        -0.540330
 H        -0.450491         1.897922        -0.761973
 H        -0.679502         1.838475         0.889913
 H         0.551153        -2.546622         0.962410
 H        -0.796398        -3.353181         0.102586
 H         0.646746        -2.615546        -0.747587
