19
Iteration:  1589charge 0 multiplicity 1
 C        -2.829841        -1.532414         1.517734
 C        -1.666741        -0.651967         1.239039
 C        -1.949819         0.319335         0.053838
 C        -0.749543         1.212820        -0.095121
 C         0.222683         0.050169         0.086572
 O         1.486326         0.024096         0.007470
 C        -0.778780        -1.224550         0.103655
 C        -0.207272        -2.621209         0.088145
 O        -1.618939        -0.746768        -0.874840
 H        -2.772253        -2.097900         2.424160
 H        -3.791070        -1.025796         1.465962
 H        -2.935862        -2.309041         0.762413
 H        -1.264575        -0.187565         2.084277
 H        -2.948913         0.759692        -0.229150
 H        -0.663563         1.944333        -0.887123
 H        -0.467276         1.794039         0.845292
 H         0.755613        -2.685658         0.491990
 H        -0.817905        -3.292048         0.642390
 H        -0.230206        -3.000211        -0.924021
