19
Iteration:  2352charge 0 multiplicity 1
 C        -2.880422        -1.597080         1.554103
 C        -1.821257        -0.609306         1.141370
 C        -1.996151         0.401946        -0.047398
 C        -0.686165         1.246115        -0.039220
 C         0.295010         0.010736         0.074626
 O         1.439441        -0.101333         0.030426
 C        -0.707610        -1.170932         0.237290
 C        -0.061307        -2.504428         0.069217
 O        -1.694634        -0.815496        -0.898974
 H        -2.635080        -2.619026         1.199822
 H        -2.921925        -1.625594         2.608423
 H        -3.879872        -1.387547         1.123966
 H        -1.369173         0.025482         1.969552
 H        -2.994485         0.787098        -0.274805
 H        -0.469585         1.817406        -0.962235
 H        -0.370757         1.761047         0.894033
 H         0.585249        -2.664560         0.912742
 H        -0.838702        -3.304216         0.080015
 H         0.495650        -2.487859        -0.810471
