19
Iteration:   623charge 0 multiplicity 1
 C        -2.817615        -1.555471         1.804776
 C        -1.821617        -0.612228         1.124150
 C        -2.027232         0.266551        -0.131375
 C        -0.758874         1.139740        -0.145007
 C         0.189015        -0.065661         0.081555
 O         1.415853        -0.073502         0.206768
 C        -0.775443        -1.115595         0.146678
 C        -0.098075        -2.430276         0.050459
 O        -1.491457        -0.734335        -1.053303
 H        -2.148667        -2.081997         2.529550
 H        -3.469793        -0.937603         2.430297
 H        -3.281998        -2.369419         1.200309
 H        -1.348045         0.030894         1.899261
 H        -2.940964         0.648228        -0.410052
 H        -0.568595         1.518903        -1.199584
 H        -0.567798         1.878047         0.521652
 H         0.191311        -2.649905         1.082777
 H        -0.855827        -3.123678        -0.293191
 H         0.743161        -2.553983        -0.669283
