19
Iteration:  1395charge 0 multiplicity 1
 C        -2.881336        -1.615561         1.622308
 C        -1.739347        -0.736594         1.183141
 C        -1.944776         0.353802         0.054814
 C        -0.693695         1.152715        -0.158316
 C         0.242685        -0.004986         0.059592
 O         1.435735        -0.062397         0.082309
 C        -0.759314        -1.171480         0.126260
 C        -0.063118        -2.500538         0.076396
 O        -1.707806        -0.639522        -0.923616
 H        -2.642234        -2.075223         2.599544
 H        -3.757322        -0.956400         1.747299
 H        -3.104306        -2.334995         0.825140
 H        -1.307371        -0.151243         2.046646
 H        -2.904622         0.929219        -0.224254
 H        -0.512985         1.604930        -1.098194
 H        -0.636047         2.009767         0.512512
 H         0.873746        -2.373780         0.704286
 H        -0.582287        -3.390500         0.474149
 H         0.216237        -2.799706        -0.971103
