19
Iteration:    74
 C        -2.839356        -1.507910         1.758760
 C        -1.747991        -0.652597         1.141893
 C        -1.991499         0.294930        -0.127163
 C        -0.762547         1.190284        -0.086299
 C         0.234473         0.059519         0.135483
 O         1.406388         0.028682         0.266869
 C        -0.680389        -1.245623         0.053527
 C        -0.061828        -2.633757         0.080836
 O        -1.659316        -0.726241        -1.138371
 H        -2.356408        -2.263140         2.445456
 H        -3.589308        -0.942489         2.344556
 H        -3.354175        -2.138844         1.005370
 H        -1.230507        -0.139561         1.989495
 H        -2.943030         0.785446        -0.331157
 H        -0.535169         1.670604        -1.180696
 H        -0.825486         2.054011         0.593654
 H         0.904744        -2.575168         0.657352
 H        -0.618533        -3.384940         0.668480
 H         0.008790        -3.000622        -1.011922
