19
Iteration:  4767charge 0 multiplicity 1
 C        -2.952494        -1.516666         1.577428
 C        -1.729800        -0.615954         1.216892
 C        -1.934233         0.327713         0.013447
 C        -0.674501         1.170308        -0.147885
 C         0.250316         0.013222         0.012114
 O         1.475811         0.028545         0.229771
 C        -0.712257        -1.219758         0.154580
 C        -0.179595        -2.582439        -0.006978
 O        -1.647996        -0.781992        -0.933479
 H        -3.493711        -1.813424         0.631427
 H        -2.497203        -2.428892         2.150895
 H        -3.655878        -0.950113         2.284675
 H        -1.199855        -0.357337         2.195993
 H        -2.816581         0.797446        -0.430612
 H        -0.843565         1.706536        -1.056731
 H        -0.370200         1.927990         0.553587
 H         0.711506        -2.630005         0.669313
 H        -0.950827        -3.320220         0.189790
 H         0.289705        -2.832517        -1.033466
