19
Iteration:   699charge 0 multiplicity 1
 C        -2.863047        -1.505999         1.469706
 C        -1.697270        -0.630985         1.243339
 C        -1.940613         0.351814         0.021335
 C        -0.731864         1.214500        -0.304900
 C         0.226674         0.052877         0.079516
 O         1.426106         0.158195         0.270561
 C        -0.614549        -1.202511         0.103348
 C        -0.164230        -2.768990         0.045302
 O        -1.702568        -0.808245        -0.812720
 H        -2.509065        -2.523189         1.576676
 H        -3.506647        -1.285332         2.302261
 H        -3.474454        -1.490519         0.570726
 H        -1.193421        -0.349826         2.175372
 H        -2.879516         0.726840        -0.203658
 H        -0.660738         1.549285        -1.442887
 H        -0.595426         2.068096         0.295479
 H         0.828333        -2.828422         0.551031
 H        -0.868863        -3.368544         0.652343
 H        -0.071181        -3.257006        -0.956965
