19
Iteration:  1744charge 0 multiplicity 1
 C        -2.893028        -1.601026         1.622905
 C        -1.661063        -0.579349         1.279991
 C        -1.968674         0.288273         0.034911
 C        -0.746948         1.269794        -0.195779
 C         0.316927         0.056869         0.053479
 O         1.526201         0.122758         0.114501
 C        -0.584716        -1.171231         0.076875
 C        -0.318932        -2.730200        -0.060208
 O        -1.638893        -0.823158        -0.817167
 H        -2.676569        -1.914629         2.625409
 H        -3.786677        -0.975405         1.656795
 H        -3.030391        -2.393338         0.911134
 H        -1.446621         0.012034         2.132956
 H        -3.068584         0.672566        -0.205467
 H        -0.853294         1.628417        -1.227701
 H        -0.672890         2.112052         0.587936
 H        -0.309000        -3.232972         0.884870
 H        -1.264880        -2.993877        -0.473048
 H         0.430762        -3.141475        -0.666075
