19
Iteration:  2216
 C        -2.830480        -1.587400         1.701490
 C        -1.776951        -0.659981         1.114796
 C        -1.935137         0.347103         0.012774
 C        -0.694525         1.183063        -0.098657
 C         0.219367        -0.078354         0.088520
 O         1.450757        -0.082677         0.143832
 C        -0.785627        -1.186357         0.047117
 C        -0.047624        -2.513610        -0.024700
 O        -1.741354        -0.628200        -0.939077
 H        -2.745298        -1.613052         2.777976
 H        -3.767173        -1.052368         1.513620
 H        -2.909100        -2.598861         1.324917
 H        -1.183992        -0.367502         1.999227
 H        -3.003403         0.888288        -0.020418
 H        -0.420120         1.627577        -1.099740
 H        -0.594462         1.952730         0.649009
 H         0.811839        -2.337235         0.662779
 H        -0.508912        -3.327962         0.529933
 H         0.401427        -2.890341        -0.988508
