19
Iteration:  1724
 C        -2.833716        -1.582945         1.631893
 C        -1.687208        -0.640618         1.250029
 C        -1.977694         0.350213         0.053490
 C        -0.677931         1.120625        -0.150921
 C         0.302222         0.051252        -0.015269
 O         1.520848         0.122675         0.147940
 C        -0.777669        -1.202564         0.128309
 C        -0.271363        -2.625676         0.034910
 O        -1.692413        -0.760740        -0.957773
 H        -2.513786        -2.204755         2.498410
 H        -3.747528        -1.005840         1.848847
 H        -3.053410        -2.221794         0.773475
 H        -0.997985        -0.361720         2.034988
 H        -2.979720         0.898414        -0.024182
 H        -0.750300         1.376947        -1.247260
 H        -0.512161         1.998243         0.508317
 H        -0.083239        -2.919842         1.088245
 H        -0.930859        -3.415786        -0.411353
 H         0.622851        -2.611117        -0.574698
