19
Iteration:  2121
 C        -3.007396        -1.522327         1.494330
 C        -1.717885        -0.737916         1.301132
 C        -1.968579         0.316197         0.195926
 C        -0.769182         1.177273         0.039171
 C         0.318851         0.034216        -0.034115
 O         1.555228         0.043590        -0.115654
 C        -0.664646        -1.206723         0.114165
 C        -0.155527        -2.607327         0.029321
 O        -1.628388        -0.717706        -0.861191
 H        -3.801476        -0.773033         1.587647
 H        -3.116472        -2.032822         0.497840
 H        -3.027456        -2.198734         2.347726
 H        -1.395218        -0.274167         2.227732
 H        -2.928184         0.787512         0.077496
 H        -0.825067         1.652694        -0.922387
 H        -0.693294         2.074206         0.702967
 H         0.785203        -2.746024         0.504308
 H        -0.869250        -3.118318         0.640128
 H        -0.148348        -3.064996        -0.990068
