19
Iteration:   332charge 0 multiplicity 1
 C        -2.786267        -1.524526         1.609413
 C        -1.763638        -0.499584         1.183278
 C        -2.011426         0.277460        -0.102086
 C        -0.779963         1.197513        -0.223218
 C         0.277708         0.026940         0.130553
 O         1.487781         0.059766         0.257609
 C        -0.759077        -1.208498         0.160501
 C        -0.131154        -2.600958         0.014349
 O        -1.636278        -0.884917        -0.933455
 H        -2.247531        -2.447482         1.833731
 H        -3.318506        -1.197795         2.486114
 H        -3.487870        -1.755712         0.797855
 H        -1.329743         0.035287         2.043233
 H        -3.010509         0.852807        -0.293716
 H        -0.706561         1.526172        -1.188994
 H        -0.856320         1.943866         0.612168
 H         0.573932        -2.723264         0.868247
 H        -0.871168        -3.397398         0.119446
 H         0.304915        -2.694141        -1.007716
