19
Iteration:  1931
 C        -2.844056        -1.562220         1.642243
 C        -1.776787        -0.641783         1.130178
 C        -1.955821         0.314408        -0.028391
 C        -0.690343         1.160722        -0.032970
 C         0.258493         0.014648         0.051395
 O         1.504229        -0.085225         0.059357
 C        -0.757738        -1.114933         0.139133
 C        -0.095486        -2.453744         0.073586
 O        -1.741415        -0.811621        -0.957520
 H        -2.546852        -2.124187         2.531656
 H        -3.670296        -0.931484         1.935971
 H        -3.276297        -2.234340         0.906625
 H        -1.227951        -0.219730         2.015336
 H        -2.987754         0.852124        -0.233143
 H        -0.544664         2.003174        -0.820063
 H        -0.544078         1.661997         0.951000
 H         0.858102        -2.461025         0.573103
 H        -0.755455        -3.234304         0.467941
 H         0.056435        -2.612761        -0.940747
