19
Iteration:  2664
 C        -3.077888        -1.500139         1.429706
 C        -1.716797        -0.638162         1.222538
 C        -1.899405         0.297186        -0.042806
 C        -0.767128         1.129113        -0.016587
 C         0.306490         0.038476         0.069573
 O         1.511860         0.172292        -0.004987
 C        -0.648531        -1.184503         0.289397
 C        -0.202311        -2.613757         0.105064
 O        -1.568062        -0.892555        -0.877727
 H        -3.809413        -1.363921         0.561566
 H        -2.871142        -2.624087         1.564683
 H        -3.452865        -1.046719         2.387346
 H        -1.478468        -0.171479         2.272231
 H        -2.789106         0.925848        -0.345402
 H        -0.599368         1.544049        -1.107874
 H        -0.460125         1.901918         0.823295
 H         0.792193        -2.811690         0.453033
 H        -0.974564        -3.367805         0.522659
 H        -0.154841        -2.838868        -0.962776
