19
Iteration:  4749
 C        -2.931940        -1.442698         1.479021
 C        -1.642980        -0.652232         1.210949
 C        -1.999374         0.361526         0.013836
 C        -0.694848         1.223934        -0.061889
 C         0.247495        -0.008990         0.102150
 O         1.505798         0.060750         0.149181
 C        -0.710139        -1.251450         0.088468
 C        -0.120182        -2.677318         0.060168
 O        -1.737730        -0.810185        -0.913282
 H        -3.239253        -1.960109         0.632123
 H        -2.814556        -2.170587         2.181198
 H        -3.669049        -0.717844         1.731237
 H        -1.311751        -0.077167         2.007206
 H        -2.974369         0.786738         0.098773
 H        -0.404839         1.567245        -1.099346
 H        -0.675872         1.862599         0.850295
 H         0.889177        -2.684390         0.549734
 H        -0.915213        -3.356107         0.254542
 H         0.277112        -2.932711        -0.963349
