19
Iteration:   538charge 0 multiplicity 1
 C        -2.998834        -1.671520         1.428992
 C        -1.784173        -0.648205         1.205712
 C        -2.000673         0.399388         0.016643
 C        -0.733111         1.240417        -0.143171
 C         0.340246         0.157444         0.064724
 O         1.504409         0.031656        -0.088468
 C        -0.648152        -1.134266         0.288257
 C        -0.131020        -2.675690         0.235517
 O        -1.578389        -0.820800        -0.832295
 H        -2.919500        -2.395639         2.327115
 H        -3.916504        -1.086620         1.698715
 H        -3.451944        -2.264113         0.561240
 H        -1.449831        -0.234662         2.182241
 H        -2.971504         0.883127        -0.338228
 H        -0.737207         1.531387        -1.224728
 H        -0.549974         2.232459         0.462934
 H         0.397912        -3.078458         1.095520
 H        -1.090688        -3.181868         0.149798
 H         0.579684        -2.825543        -0.616005
