19
Iteration:  4822charge 0 multiplicity 1
 C        -2.730072        -1.590182         1.671736
 C        -1.711138        -0.512612         1.078038
 C        -1.995291         0.376804        -0.082327
 C        -0.660045         1.186015        -0.141897
 C         0.237537        -0.033238         0.016466
 O         1.420216        -0.005786         0.331278
 C        -0.721928        -1.207631         0.078766
 C        -0.272404        -2.594529         0.061720
 O        -1.683611        -0.757606        -0.982970
 H        -3.506456        -1.783214         0.863864
 H        -2.200174        -2.652365         1.821733
 H        -3.316232        -1.163730         2.582389
 H        -0.990021        -0.085559         1.941022
 H        -2.978800         0.755901        -0.333378
 H        -0.463592         1.777949        -1.006752
 H        -0.612370         1.587770         0.846171
 H         0.257585        -2.790663         1.057640
 H        -1.064766        -3.261098        -0.056485
 H         0.551987        -2.702015        -0.753364
