19
Iteration:  3071charge 0 multiplicity 1
 C        -2.801853        -1.589145         1.562847
 C        -1.694154        -0.581445         1.174917
 C        -1.995374         0.323696        -0.039908
 C        -0.727224         1.198402        -0.274714
 C         0.303855         0.012590         0.120643
 O         1.493950         0.086592         0.225036
 C        -0.669993        -1.164190         0.164041
 C        -0.315979        -2.654871         0.076627
 O        -1.662412        -0.776224        -0.914701
 H        -3.203855        -2.136235         0.724574
 H        -2.526737        -2.269229         2.320182
 H        -3.651788        -0.973729         1.920932
 H        -1.281231        -0.167425         2.107271
 H        -3.071567         0.688083        -0.112751
 H        -0.593672         1.425523        -1.305288
 H        -0.425391         1.933551         0.524547
 H        -0.073131        -2.924426         1.111085
 H        -1.028025        -3.282784        -0.401952
 H         0.590265        -2.832759        -0.537858
