19
Iteration:  1836
 C        -2.831720        -1.571616         1.482855
 C        -1.702972        -0.617567         1.197927
 C        -2.016207         0.412491        -0.040209
 C        -0.694891         1.178565        -0.027736
 C         0.211019        -0.015392         0.102980
 O         1.443609        -0.056074        -0.039558
 C        -0.758642        -1.198468         0.161349
 C        -0.042953        -2.518309         0.162797
 O        -1.704981        -0.772800        -0.854829
 H        -2.618534        -2.661886         1.641853
 H        -3.350144        -1.371519         2.469494
 H        -3.675656        -1.420305         0.753252
 H        -1.236439        -0.198543         2.116420
 H        -2.896506         0.889996        -0.438812
 H        -0.564268         1.796998        -0.975367
 H        -0.575132         1.938055         0.728872
 H         0.991407        -2.644291         0.590336
 H        -0.742770        -3.296098         0.619643
 H         0.110838        -2.847134        -0.949967
