19
Iteration:  1933charge 0 multiplicity 1
 C        -2.839034        -1.564985         1.655276
 C        -1.782099        -0.637788         1.135283
 C        -1.965872         0.321551        -0.025783
 C        -0.678869         1.165096        -0.023088
 C         0.277684         0.020964         0.040675
 O         1.488719        -0.096020         0.064468
 C        -0.760699        -1.102441         0.148608
 C        -0.094632        -2.443212         0.075733
 O        -1.744373        -0.819277        -0.972520
 H        -2.531536        -2.115883         2.561260
 H        -3.716537        -0.933738         1.860700
 H        -3.265078        -2.268843         0.900711
 H        -1.195961        -0.286034         1.988696
 H        -2.961628         0.847987        -0.211330
 H        -0.523314         1.946856        -0.882727
 H        -0.599722         1.697677         0.944609
 H         0.855631        -2.481325         0.588702
 H        -0.712595        -3.286365         0.413927
 H         0.088022        -2.629534        -0.995629
