19
Iteration:   194
 C        -2.881665        -1.511213         1.520201
 C        -1.773785        -0.667496         1.152280
 C        -2.022237         0.311710         0.026961
 C        -0.790270         1.197728        -0.054662
 C         0.255218        -0.026830         0.095395
 O         1.463258         0.121391        -0.009617
 C        -0.697237        -1.214957         0.189743
 C        -0.164112        -2.558571         0.214631
 O        -1.499704        -0.855371        -1.009586
 H        -2.506643        -2.489993         1.923100
 H        -3.587124        -1.116307         2.281272
 H        -3.576798        -1.843912         0.713430
 H        -1.254599        -0.108322         1.962438
 H        -2.995618         0.738768        -0.136928
 H        -0.669245         2.009294        -0.941776
 H        -0.694738         1.899742         0.832480
 H         0.150343        -2.825870         1.225568
 H        -0.774505        -3.447514         0.024873
 H         0.614100        -2.476610        -0.593783
