19
Iteration:  1056charge 0 multiplicity 1
 C        -2.960219        -1.549285         1.692289
 C        -1.792894        -0.787032         1.148300
 C        -1.929214         0.236059         0.015666
 C        -0.723314         1.219490        -0.056094
 C         0.268783         0.118728         0.108197
 O         1.468960         0.040787         0.081053
 C        -0.707694        -1.156476         0.144483
 C        -0.225331        -2.578674         0.046264
 O        -1.492106        -0.745595        -1.021551
 H        -2.520624        -2.251698         2.420823
 H        -3.501086        -0.712745         2.192912
 H        -3.604224        -2.055245         0.952482
 H        -1.356223        -0.217526         2.011496
 H        -2.818035         0.618406        -0.328401
 H        -0.669712         1.500117        -1.123449
 H        -0.695198         2.179178         0.531808
 H         0.826288        -2.777641         0.019557
 H        -0.700030        -3.156162         0.858231
 H        -0.517231        -2.922047        -0.952565
