19
Iteration:  2299charge 0 multiplicity 1
 C        -2.855262        -1.657715         1.679678
 C        -1.724295        -0.687825         1.203433
 C        -1.952528         0.417285         0.007222
 C        -0.688869         1.153003        -0.182594
 C         0.315142         0.038295        -0.004107
 O         1.479286         0.105888         0.235638
 C        -0.707244        -1.159377        -0.029461
 C        -0.263873        -2.654899         0.085407
 O        -1.690046        -0.709435        -0.939121
 H        -2.615059        -2.792954         1.711868
 H        -2.951254        -1.424000         2.739876
 H        -3.797336        -1.450657         1.081658
 H        -0.987679        -0.422751         1.989200
 H        -2.822951         0.904336        -0.248277
 H        -0.668726         1.478697        -1.260413
 H        -0.520192         1.901779         0.568570
 H         0.131428        -2.918831         1.077356
 H        -1.172393        -3.247542        -0.188385
 H         0.526929        -2.786803        -0.604935
