19
Iteration:  2389charge 0 multiplicity 1
 C        -3.064036        -1.431730         1.490157
 C        -1.744452        -0.735313         1.166342
 C        -2.035838         0.260495         0.137703
 C        -0.715651         1.122672        -0.053886
 C         0.326946         0.024786         0.091484
 O         1.470924         0.151759        -0.083818
 C        -0.631406        -1.206560         0.189164
 C        -0.170640        -2.617346         0.092686
 O        -1.514195        -0.770455        -0.848456
 H        -3.090745        -2.415954         0.921003
 H        -3.348526        -1.655393         2.595488
 H        -3.903614        -0.822119         1.051501
 H        -1.317242        -0.482719         2.207584
 H        -3.029917         0.663029        -0.079657
 H        -0.759864         1.596740        -1.092703
 H        -0.240011         1.905302         0.535931
 H         0.745375        -2.779840         0.736079
 H        -1.018180        -3.239977         0.326348
 H         0.311372        -2.908856        -0.922527
