19
Iteration:  4509
 C        -2.785381        -1.536299         1.528947
 C        -1.656506        -0.596323         1.159223
 C        -1.990182         0.303835        -0.042810
 C        -0.695572         1.148512        -0.084088
 C         0.284715         0.007934         0.135651
 O         1.475703         0.039117         0.223174
 C        -0.716577        -1.165980         0.124545
 C        -0.268152        -2.586002        -0.026951
 O        -1.680299        -0.780214        -0.939213
 H        -3.343032        -2.063793         0.704799
 H        -2.436408        -2.224347         2.336173
 H        -3.582919        -0.982310         2.161300
 H        -1.218590        -0.141652         2.090973
 H        -2.850357         0.903284        -0.280007
 H        -0.666164         1.594130        -1.100223
 H        -0.732441         1.752660         0.716566
 H         0.682227        -2.736302         0.501315
 H        -1.067713        -3.014862         0.478767
 H        -0.346836        -3.174426        -0.960178
