19
Iteration:  1132
 C        -2.919289        -1.652493         1.497422
 C        -1.743963        -0.664449         1.232331
 C        -1.964127         0.338420         0.062084
 C        -0.760292         1.249227        -0.103696
 C         0.254267         0.015711         0.072920
 O         1.443042        -0.129147         0.005260
 C        -0.694939        -1.172792         0.183526
 C        -0.111682        -2.510592         0.158019
 O        -1.639241        -0.647491        -0.955887
 H        -2.530422        -2.431876         2.203401
 H        -3.831122        -1.235638         1.989593
 H        -3.044734        -2.194799         0.559827
 H        -1.446833        -0.075661         2.095385
 H        -2.915505         0.796891        -0.016132
 H        -0.775136         1.603460        -1.161213
 H        -0.190264         2.133488         0.476667
 H         0.726610        -2.461712         0.875904
 H        -0.771020        -3.360647         0.492006
 H         0.421899        -2.622940        -0.813482
