19
Iteration:    66charge 0 multiplicity 1
 C        -2.843959        -1.549869         1.725513
 C        -1.750666        -0.714755         1.060363
 C        -1.959898         0.344951        -0.038146
 C        -0.807037         1.258680        -0.181561
 C         0.233539         0.040768         0.155406
 O         1.461819         0.068604         0.261507
 C        -0.734174        -1.290580         0.072772
 C        -0.094608        -2.627402         0.084624
 O        -1.609530        -0.729660        -1.044857
 H        -2.560374        -2.276306         2.472410
 H        -3.511252        -0.894419         2.297710
 H        -3.500238        -2.008426         0.982730
 H        -1.171898        -0.211764         1.811111
 H        -2.953427         0.757961        -0.170308
 H        -0.661372         1.394877        -1.251874
 H        -0.756242         2.063559         0.408229
 H         0.946377        -2.514190         0.465430
 H        -0.778518        -3.298317         0.652063
 H         0.020677        -3.014062        -0.955931
