19
Iteration:   525charge 0 multiplicity 1
 C        -2.982621        -1.631040         1.489846
 C        -1.869135        -0.581204         1.241495
 C        -1.960180         0.310566        -0.059277
 C        -0.685038         1.247412        -0.068922
 C         0.256232         0.014484         0.088588
 O         1.459814         0.011847        -0.113927
 C        -0.669697        -1.161607         0.288435
 C        -0.114735        -2.539012         0.228579
 O        -1.551815        -0.824649        -0.918357
 H        -2.495766        -2.479216         2.075369
 H        -3.846930        -1.176794         2.040834
 H        -3.195635        -2.000319         0.442194
 H        -1.593549        -0.034764         2.175425
 H        -2.877444         0.719517        -0.337557
 H        -0.451398         1.806637        -1.051825
 H        -0.613422         1.907441         0.760177
 H         0.525696        -2.716095         1.117957
 H        -0.882302        -3.292001         0.227092
 H         0.434912        -2.683858        -0.716299
