19
Iteration:  3542
 C        -2.945463        -1.496503         1.625941
 C        -1.810579        -0.654606         1.213744
 C        -2.059706         0.300268         0.006824
 C        -0.660203         1.157567        -0.125051
 C         0.270189        -0.054339         0.070818
 O         1.538408        -0.007617         0.104095
 C        -0.724549        -1.153708         0.127878
 C        -0.120212        -2.541658         0.047698
 O        -1.595159        -0.734072        -0.969538
 H        -3.330939        -2.130176         0.795180
 H        -2.688186        -2.262217         2.418684
 H        -3.750748        -0.853250         2.087405
 H        -1.327540        -0.129050         2.029865
 H        -3.094786         0.752360        -0.220194
 H        -0.482671         1.796253        -0.933893
 H        -0.680415         1.894100         0.704697
 H         0.901979        -2.579557         0.422763
 H        -0.711549        -3.348069         0.604622
 H        -0.088457        -2.996311        -0.953580
