19
Iteration:  1470charge 0 multiplicity 1
 C        -2.932422        -1.607887         1.617181
 C        -1.686623        -0.705717         1.267294
 C        -1.919891         0.306917        -0.040979
 C        -0.725621         1.154514        -0.157074
 C         0.314755         0.035688         0.043575
 O         1.516861         0.217552         0.029925
 C        -0.681929        -1.211256         0.157512
 C        -0.334727        -2.702517         0.078502
 O        -1.597426        -0.683860        -0.891095
 H        -2.618637        -2.555485         2.053934
 H        -3.478565        -1.099677         2.387810
 H        -3.640547        -1.790345         0.825416
 H        -1.252984        -0.244450         2.178613
 H        -3.026924         0.642463        -0.036405
 H        -0.678441         1.589036        -1.080239
 H        -0.443373         1.997212         0.433712
 H        -0.065875        -3.117716         1.052579
 H        -1.163358        -3.297672        -0.278222
 H         0.491663        -2.927271        -0.627543
