19
Iteration:  4633
 C        -2.952520        -1.499521         1.476518
 C        -1.725031        -0.738869         1.175463
 C        -2.022946         0.381938         0.103439
 C        -0.663368         1.161820        -0.024663
 C         0.309992         0.020021         0.025657
 O         1.563228         0.080035         0.011830
 C        -0.720839        -1.219971         0.094650
 C        -0.159182        -2.624524         0.217627
 O        -1.681587        -0.731463        -0.942461
 H        -3.502378        -1.648667         0.502881
 H        -2.801720        -2.623915         1.619833
 H        -3.679454        -1.085291         2.229020
 H        -1.281824        -0.263657         2.073617
 H        -2.995485         0.914228        -0.143694
 H        -0.529309         1.455213        -1.004914
 H        -0.594922         1.832446         0.757429
 H         0.116083        -2.883081         1.224438
 H        -1.056169        -3.285405        -0.047559
 H         0.660018        -2.793406        -0.422370
