19
Iteration:   968charge 0 multiplicity 1
 C        -2.901786        -1.610067         1.583222
 C        -1.699325        -0.682334         1.190812
 C        -1.993078         0.413222         0.116442
 C        -0.653850         1.184821        -0.263184
 C         0.254189        -0.012342         0.047080
 O         1.455031         0.168999         0.219282
 C        -0.673401        -1.245091         0.118321
 C        -0.177619        -2.705081         0.066298
 O        -1.676494        -0.701528        -0.923202
 H        -2.793507        -2.425424         2.309080
 H        -3.811887        -1.015515         1.877787
 H        -3.130061        -2.237365         0.674077
 H        -1.287131        -0.146165         2.102867
 H        -2.947886         0.790581        -0.161992
 H        -0.499596         1.427803        -1.273988
 H        -0.263060         2.106224         0.290937
 H         0.886459        -2.923585         0.247350
 H        -0.871921        -3.341781         0.631098
 H        -0.370784        -2.861991        -1.008393
