19
Iteration:  1372charge 0 multiplicity 1
 C        -2.966867        -1.523770         1.540107
 C        -1.674528        -0.626482         1.258411
 C        -1.981334         0.297183         0.132485
 C        -0.768657         1.267361        -0.120484
 C         0.322850         0.010112         0.042833
 O         1.487055         0.061253         0.088914
 C        -0.660794        -1.169233         0.127223
 C        -0.181180        -2.616394         0.000197
 O        -1.627491        -0.858124        -0.916064
 H        -2.735898        -2.265228         2.303715
 H        -3.738547        -0.874927         1.970846
 H        -3.280481        -1.962714         0.604771
 H        -1.160738        -0.176209         2.174177
 H        -3.068165         0.587530        -0.148403
 H        -0.698688         1.704189        -1.046049
 H        -0.612770         2.086438         0.594944
 H         0.817916        -2.854771         0.392745
 H        -0.881550        -3.356235         0.449725
 H        -0.234471        -2.842276        -1.102717
