19
Iteration:  1805
 C        -2.891912        -1.579294         1.665524
 C        -1.739494        -0.727414         1.155837
 C        -2.032492         0.342285        -0.017239
 C        -0.740176         1.236971        -0.090085
 C         0.305313        -0.014459        -0.015324
 O         1.485714        -0.134893         0.045488
 C        -0.749039        -1.167337         0.158411
 C        -0.024845        -2.525963         0.162427
 O        -1.707796        -0.637726        -0.995821
 H        -2.609316        -2.317605         2.431840
 H        -3.518989        -0.868036         2.257505
 H        -3.557757        -2.150143         0.959796
 H        -1.238797        -0.198377         2.036969
 H        -2.964872         0.767174        -0.168663
 H        -0.829596         1.958458        -0.873460
 H        -0.567086         1.844965         0.790310
 H         0.737464        -2.586725         0.974388
 H        -0.753112        -3.368322         0.123563
 H         0.553476        -2.538917        -0.845259
