19
Iteration:  3624
 C        -2.787292        -1.670218         1.655284
 C        -1.674445        -0.597894         1.139966
 C        -2.033434         0.405906        -0.054102
 C        -0.662713         1.235630        -0.164148
 C         0.248864        -0.004169         0.037458
 O         1.423953        -0.045246         0.227043
 C        -0.718346        -1.149646         0.113843
 C        -0.238358        -2.579876         0.061958
 O        -1.656267        -0.720134        -0.935940
 H        -3.359510        -2.043005         0.786775
 H        -2.338797        -2.388789         2.346018
 H        -3.461553        -0.948480         2.133151
 H        -1.173859        -0.335282         2.120417
 H        -2.879690         0.927609        -0.418833
 H        -0.804438         1.318453        -1.290004
 H        -0.555462         2.083919         0.502123
 H         0.194709        -2.931616         1.066655
 H        -0.973368        -3.347606        -0.100235
 H         0.683350        -2.800669        -0.559220
