19
Iteration:  4445
 C        -2.973510        -1.532655         1.517148
 C        -1.723955        -0.683723         1.209591
 C        -1.937331         0.353416         0.032437
 C        -0.703171         1.188316        -0.040859
 C         0.255211         0.016566         0.103939
 O         1.512983        -0.061495         0.074356
 C        -0.770787        -1.214008         0.144767
 C        -0.062138        -2.541795         0.091631
 O        -1.701331        -0.715592        -0.989578
 H        -3.541422        -1.694606         0.542491
 H        -2.724089        -2.485423         2.092461
 H        -3.629261        -0.839186         2.219856
 H        -1.174141        -0.338759         2.073312
 H        -2.927489         0.765220        -0.003386
 H        -0.743779         1.335578        -1.136177
 H        -0.492375         2.215891         0.541941
 H         0.851963        -2.411821         0.792373
 H        -0.736480        -3.310450         0.466978
 H         0.345813        -2.877184        -0.926163
