19
Iteration:  2547charge 0 multiplicity 1
 C        -2.937051        -1.428955         1.644842
 C        -1.683749        -0.691293         1.226318
 C        -1.931778         0.200939         0.012415
 C        -0.778581         1.134208        -0.193115
 C         0.257942         0.023249         0.090295
 O         1.522555         0.129143         0.204245
 C        -0.685231        -1.276157         0.158354
 C        -0.262346        -2.593553        -0.088295
 O        -1.544938        -0.727537        -0.936026
 H        -3.350391        -2.039544         0.820426
 H        -2.753651        -2.162183         2.424804
 H        -3.718188        -0.746328         1.993014
 H        -1.317373        -0.103169         2.088677
 H        -2.962423         0.597139        -0.114321
 H        -0.798553         1.516714        -1.197460
 H        -0.719592         1.928658         0.537645
 H         0.131381        -2.972685         0.924459
 H        -1.148722        -3.238324        -0.390998
 H         0.484392        -2.663593        -0.857743
