19
Iteration:  4899
 C        -3.012589        -1.518730         1.462089
 C        -1.820519        -0.601571         1.244608
 C        -1.969605         0.340942         0.020943
 C        -0.664772         1.187658        -0.090584
 C         0.317848         0.043572         0.102820
 O         1.558082        -0.027738         0.008661
 C        -0.680611        -1.194867         0.207969
 C        -0.138684        -2.533601        -0.032261
 O        -1.643936        -0.829840        -0.794922
 H        -3.112968        -2.313934         0.686759
 H        -2.773635        -2.020829         2.501420
 H        -4.072299        -1.082282         1.610670
 H        -1.579617        -0.125680         2.270770
 H        -2.911174         0.712144        -0.331515
 H        -0.511054         1.673405        -1.027123
 H        -0.635052         1.694786         0.839533
 H         0.549679        -2.779527         0.739831
 H        -0.845546        -3.235464         0.144686
 H         0.128043        -2.521599        -1.113527
