19
Iteration:  3897
 C        -2.839546        -1.583024         1.675350
 C        -1.725234        -0.596930         1.162766
 C        -1.971908         0.345358        -0.056720
 C        -0.727457         1.187891        -0.101689
 C         0.247482         0.042186        -0.026260
 O         1.462435        -0.115523         0.268691
 C        -0.695309        -1.170016         0.049677
 C        -0.147525        -2.519499        -0.003059
 O        -1.721619        -0.770054        -0.919381
 H        -3.123017        -2.158677         0.753531
 H        -2.219707        -2.307114         2.285302
 H        -3.563620        -0.859459         2.225813
 H        -1.296119         0.209392         2.107678
 H        -2.879661         0.862420        -0.339074
 H        -0.599407         1.795079        -1.015864
 H        -0.545842         1.818955         0.721328
 H         0.318972        -2.774359         0.991795
 H        -0.882963        -3.361360        -0.099501
 H         0.475043        -2.571658        -0.893329
