19
Iteration:  1110charge 0 multiplicity 1
 C        -2.950451        -1.617946         1.431953
 C        -1.727162        -0.631333         1.217447
 C        -1.975567         0.394928         0.041652
 C        -0.690297         1.176209        -0.087025
 C         0.339383        -0.005957         0.029659
 O         1.533993         0.076815         0.026044
 C        -0.708165        -1.125479         0.153226
 C        -0.147436        -2.565107         0.078742
 O        -1.739191        -0.864741        -0.818296
 H        -2.753603        -2.224304         2.348713
 H        -3.858919        -1.047045         1.719874
 H        -3.057232        -2.303664         0.588872
 H        -1.423269        -0.180080         2.160599
 H        -2.930269         0.822005        -0.179613
 H        -0.303526         1.895474        -0.820818
 H        -0.608455         1.861653         0.917472
 H         0.809620        -2.719949         0.595519
 H        -0.907494        -3.156227         0.662091
 H        -0.137767        -2.883650        -0.981151
