19
Iteration:  3686charge 0 multiplicity 1
 C        -2.918841        -1.521861         1.575054
 C        -1.726901        -0.653177         1.221195
 C        -2.009304         0.368355         0.005852
 C        -0.649136         1.180292        -0.074562
 C         0.282351         0.002750         0.106367
 O         1.457255         0.050719         0.051006
 C        -0.703199        -1.215681         0.174339
 C        -0.180590        -2.618758         0.096986
 O        -1.610445        -0.793296        -1.010815
 H        -3.605398        -1.782985         0.717775
 H        -2.659434        -2.560173         1.940142
 H        -3.489467        -1.092468         2.415834
 H        -1.298610        -0.163003         2.063390
 H        -2.940993         0.898790        -0.257392
 H        -0.737050         1.750190        -0.977237
 H        -0.595050         2.023550         0.632798
 H         0.488576        -2.690734         1.002696
 H        -1.054944        -3.305231         0.098962
 H         0.443184        -2.739820        -0.820531
