19
Iteration:  2931
 C        -2.896972        -1.544481         1.426390
 C        -1.735023        -0.570206         1.220216
 C        -1.978282         0.300566        -0.001891
 C        -0.654590         1.196222        -0.057996
 C         0.263519         0.014860         0.058700
 O         1.490212         0.085464         0.040500
 C        -0.651617        -1.192899         0.218503
 C        -0.221020        -2.573860         0.149944
 O        -1.642250        -0.901798        -0.924384
 H        -3.092323        -2.140271         0.534987
 H        -3.003398        -2.008595         2.404211
 H        -3.669664        -0.733494         1.314199
 H        -1.397838        -0.099241         2.156670
 H        -3.059592         0.686266        -0.077186
 H        -0.435109         1.963863        -0.867538
 H        -0.568297         1.738222         0.920440
 H         0.742263        -2.841899         0.496531
 H        -0.910479        -3.168412         0.666933
 H        -0.450021        -2.939533        -0.849281
