19
Iteration:  1500charge 0 multiplicity 1
 C        -2.925863        -1.524596         1.560870
 C        -1.674938        -0.665133         1.236342
 C        -1.939880         0.307902         0.024845
 C        -0.743415         1.173922        -0.019835
 C         0.360724         0.064424         0.011962
 O         1.550754         0.195202         0.033596
 C        -0.729674        -1.187331         0.075928
 C        -0.263474        -2.697818         0.090919
 O        -1.689936        -0.859650        -0.889468
 H        -2.726842        -2.576187         1.868977
 H        -3.388828        -0.876805         2.308007
 H        -3.631025        -1.570875         0.728015
 H        -1.299481        -0.098531         2.048385
 H        -2.948278         0.649575        -0.048788
 H        -0.828809         1.609009        -1.100613
 H        -0.372033         1.974881         0.674406
 H         0.132074        -3.076922         0.979146
 H        -1.082177        -3.338268        -0.252808
 H         0.603740        -2.757250        -0.558140
