19
Iteration:   793
 C        -3.043374        -1.577515         1.682988
 C        -1.798327        -0.795256         1.188042
 C        -1.943041         0.280656        -0.049916
 C        -0.680461         1.230808         0.044211
 C         0.260599         0.058896         0.010554
 O         1.489509         0.084158        -0.059010
 C        -0.689277        -1.161802         0.124897
 C        -0.162661        -2.538675         0.184841
 O        -1.518527        -0.784613        -1.015397
 H        -2.772713        -2.008324         2.662046
 H        -4.016907        -0.984865         1.703855
 H        -3.300751        -2.415728         0.947696
 H        -1.499218        -0.199485         2.091446
 H        -2.892807         0.780135        -0.361384
 H        -0.598265         1.712783        -0.879002
 H        -0.303799         1.969489         0.836211
 H         0.242484        -2.717610         1.218282
 H        -1.038090        -3.140464         0.041516
 H         0.558248        -2.792497        -0.583066
