19
Iteration:  3703
 C        -3.019355        -1.513611         1.516385
 C        -1.748371        -0.656243         1.196297
 C        -1.974122         0.277507         0.071240
 C        -0.797976         1.174914        -0.111102
 C         0.364686         0.004572         0.063057
 O         1.522007         0.036873         0.008102
 C        -0.697591        -1.204073         0.197689
 C        -0.156193        -2.599655         0.079439
 O        -1.579487        -0.714783        -0.868574
 H        -3.434502        -1.815887         0.570689
 H        -2.814942        -2.335347         2.175656
 H        -3.762798        -0.857684         2.003317
 H        -1.247986        -0.422644         2.227813
 H        -3.008316         0.645226        -0.096472
 H        -0.618509         1.423645        -1.232983
 H        -0.487751         2.010029         0.570245
 H         0.639429        -2.749069         0.909703
 H        -0.980287        -3.327378         0.174310
 H         0.216518        -2.562051        -0.963690
