19
Iteration:   569
 C        -2.926817        -1.550216         1.382579
 C        -1.633122        -0.621512         1.336919
 C        -1.961185         0.281084         0.120748
 C        -0.701130         1.074499        -0.155739
 C         0.254502         0.006379        -0.035991
 O         1.476829         0.224180         0.042970
 C        -0.710329        -1.140998         0.181086
 C        -0.220981        -2.648078         0.199907
 O        -1.654139        -0.827723        -0.896987
 H        -3.187879        -2.035915         2.366682
 H        -3.750426        -0.886595         1.019367
 H        -2.766307        -2.271986         0.526794
 H        -1.073272        -0.166216         2.188865
 H        -2.795640         0.851528        -0.068047
 H        -0.774860         1.454047        -1.221524
 H        -0.394380         1.802304         0.507477
 H        -0.049356        -2.935907         1.246919
 H        -1.049086        -3.248508        -0.128959
 H         0.696727        -2.754241        -0.398110
