19
Iteration:  1546charge 0 multiplicity 1
 C        -2.876602        -1.648840         1.641711
 C        -1.856440        -0.608673         1.218276
 C        -1.999150         0.331000        -0.008131
 C        -0.647965         1.253412        -0.060069
 C         0.270881        -0.015300         0.030122
 O         1.488960        -0.163760         0.010149
 C        -0.759811        -1.169140         0.130452
 C        -0.094835        -2.454674         0.063552
 O        -1.677270        -0.704469        -0.902172
 H        -2.399832        -2.245476         2.378286
 H        -3.792943        -1.187594         1.957513
 H        -3.069911        -2.335785         0.826763
 H        -1.291848        -0.295083         2.049742
 H        -3.014577         0.824251        -0.297271
 H        -0.588120         1.745030        -1.007346
 H        -0.668472         2.178131         0.587368
 H         0.646101        -2.290797         0.809762
 H        -0.607266        -3.334568         0.266197
 H         0.589881        -2.463614        -0.766265
