19
Iteration:  1421
 C        -2.764447        -1.608449         1.636852
 C        -1.781581        -0.640311         1.200355
 C        -2.053001         0.423640        -0.048783
 C        -0.678202         1.190737        -0.001335
 C         0.238943         0.036574        -0.051540
 O         1.475543        -0.164792         0.112231
 C        -0.777734        -1.119348         0.129371
 C        -0.046394        -2.496881         0.068711
 O        -1.773625        -0.779427        -0.955574
 H        -2.398766        -2.212479         2.513942
 H        -3.807879        -1.224206         1.813260
 H        -2.833914        -2.210933         0.687411
 H        -1.395597         0.002325         1.973461
 H        -2.885564         0.980651        -0.337072
 H        -0.361721         1.937999        -0.882466
 H        -0.466421         1.958017         0.789444
 H         0.533090        -2.419190         1.015578
 H        -0.624452        -3.431742         0.211503
 H         0.577144        -2.749591        -0.772529
