19
Iteration:  3459charge 0 multiplicity 1
 C        -3.058925        -1.544039         1.417310
 C        -1.744124        -0.739961         1.270316
 C        -1.915918         0.361654         0.058085
 C        -0.656377         1.195545        -0.144241
 C         0.330384         0.029434         0.062196
 O         1.483911         0.061347        -0.017114
 C        -0.693447        -1.171346         0.206819
 C        -0.172102        -2.644902         0.132513
 O        -1.647136        -0.769400        -0.818575
 H        -3.353193        -1.909028         0.411685
 H        -2.647644        -2.344309         2.000821
 H        -3.908639        -1.085150         1.863934
 H        -1.399185        -0.003744         2.064459
 H        -2.777060         0.922207        -0.168414
 H        -0.711778         1.598367        -1.245807
 H        -0.523024         1.903342         0.727252
 H         0.864134        -2.464184         0.452369
 H        -0.665023        -3.257315         0.876356
 H        -0.110216        -2.908321        -0.918204
