19
Iteration:  4187charge 0 multiplicity 1
 C        -2.893087        -1.596022         1.645654
 C        -1.767768        -0.562363         1.208427
 C        -1.882186         0.340585        -0.048603
 C        -0.692757         1.201133        -0.148797
 C         0.244239        -0.059117        -0.000960
 O         1.441264        -0.020806         0.212628
 C        -0.756547        -1.202232         0.143482
 C        -0.151247        -2.568471        -0.027842
 O        -1.655234        -0.727056        -0.914543
 H        -3.591069        -1.878555         0.846099
 H        -2.447782        -2.433062         2.239551
 H        -3.601119        -1.160508         2.383712
 H        -1.260685        -0.184859         2.034877
 H        -2.800220         0.901650        -0.226149
 H        -0.600729         1.806780        -1.007592
 H        -0.433686         1.896545         0.631142
 H         0.806653        -2.403524         0.484036
 H        -0.690487        -3.417617         0.369514
 H         0.060029        -2.842967        -1.053986
