19
Iteration:  2448charge 0 multiplicity 1
 C        -2.849264        -1.732662         1.566179
 C        -1.846877        -0.588185         1.165077
 C        -1.958965         0.367111        -0.079529
 C        -0.675647         1.205887        -0.062353
 C         0.282343        -0.052949         0.071238
 O         1.469046        -0.047441        -0.001707
 C        -0.701188        -1.110901         0.257743
 C        -0.170558        -2.490668         0.201551
 O        -1.634788        -0.716851        -0.990957
 H        -3.413088        -1.995047         0.680931
 H        -2.403955        -2.635485         1.947596
 H        -3.577869        -1.286957         2.230900
 H        -1.487454        -0.066689         2.039751
 H        -2.875861         1.012731        -0.322896
 H        -0.694853         1.685924        -0.994356
 H        -0.521924         1.796854         0.866752
 H         0.544833        -2.496350         1.028945
 H        -0.882271        -3.338791         0.474870
 H         0.235697        -2.657256        -0.789409
