19
Iteration:  1469charge 0 multiplicity 1
 C        -2.919083        -1.612318         1.613248
 C        -1.688842        -0.691650         1.268621
 C        -1.929814         0.302330        -0.036620
 C        -0.722165         1.154788        -0.151915
 C         0.322287         0.037385         0.047466
 O         1.506147         0.208003         0.030076
 C        -0.679915        -1.213526         0.150065
 C        -0.334351        -2.703749         0.085830
 O        -1.593996        -0.681768        -0.891530
 H        -2.658639        -2.563746         2.093422
 H        -3.471109        -1.103531         2.380533
 H        -3.621826        -1.768589         0.819033
 H        -1.257235        -0.244618         2.161428
 H        -3.017268         0.653024        -0.080941
 H        -0.713120         1.596249        -1.100261
 H        -0.453511         2.019486         0.428668
 H        -0.066375        -3.109585         1.022725
 H        -1.141256        -3.310393        -0.296554
 H         0.465246        -2.895760        -0.641236
