19
Iteration:  4708charge 0 multiplicity 1
 C        -3.000499        -1.663562         1.527965
 C        -1.810079        -0.639508         1.236238
 C        -1.998310         0.416463         0.037954
 C        -0.635927         1.288475        -0.057549
 C         0.260633        -0.002130         0.069946
 O         1.513688        -0.039901        -0.007313
 C        -0.702372        -1.156577         0.208145
 C        -0.155022        -2.585241         0.079061
 O        -1.565895        -0.751646        -0.950466
 H        -3.216726        -2.478429         0.750266
 H        -3.036659        -2.164688         2.552432
 H        -3.923418        -1.018190         1.523454
 H        -1.358954        -0.192977         2.226986
 H        -2.974620         0.782491        -0.384023
 H        -0.588152         1.796721        -1.079501
 H        -0.268539         1.869954         0.839978
 H         0.701206        -2.703272         0.745432
 H        -0.855700        -3.352370         0.562996
 H         0.089501        -2.806048        -0.912475
