19
Iteration:  1626
 C        -3.003193        -1.551123         1.539745
 C        -1.693054        -0.696662         1.242307
 C        -1.967062         0.313736         0.018942
 C        -0.667865         1.141074        -0.122613
 C         0.299973         0.096261         0.025603
 O         1.566264         0.199903         0.023069
 C        -0.722552        -1.253521         0.204472
 C        -0.268110        -2.662747         0.032458
 O        -1.624676        -0.795711        -0.865894
 H        -2.605492        -2.376669         2.158559
 H        -3.544530        -0.981321         2.304991
 H        -3.543657        -1.774233         0.614798
 H        -1.268841        -0.161807         2.146159
 H        -2.958144         0.825758        -0.156199
 H        -0.599997         1.726265        -1.048074
 H        -0.559654         1.713960         0.808600
 H         0.820546        -2.740782         0.408405
 H        -0.963736        -3.311121         0.659750
 H        -0.344983        -3.065845        -0.979481
