19
Iteration:  3596
 C        -2.898399        -1.535723         1.567572
 C        -1.678048        -0.529616         1.228664
 C        -1.967052         0.272506         0.018319
 C        -0.646919         1.135387        -0.158964
 C         0.296956        -0.014074        -0.003466
 O         1.516597         0.069936         0.249361
 C        -0.709782        -1.180040         0.122650
 C        -0.226088        -2.569898        -0.039980
 O        -1.756152        -0.810739        -0.882492
 H        -3.023803        -2.284338         0.792489
 H        -2.645555        -2.077222         2.523567
 H        -3.773281        -0.851580         1.673501
 H        -1.101477        -0.213505         2.134696
 H        -2.938386         0.868678        -0.170948
 H        -0.719232         1.393605        -1.213370
 H        -0.774216         2.078751         0.580364
 H         0.427794        -2.906936         0.720745
 H        -0.921864        -3.428076        -0.169029
 H         0.482677        -2.705830        -0.826929
