19
Iteration:  2869charge 0 multiplicity 1
 C        -2.874623        -1.641133         1.507327
 C        -1.839560        -0.565927         1.169045
 C        -1.915774         0.364958        -0.051840
 C        -0.710948         1.202742        -0.084654
 C         0.261772        -0.021831         0.076877
 O         1.508574        -0.096084         0.088042
 C        -0.791123        -1.142065         0.166454
 C        -0.101724        -2.475590         0.149275
 O        -1.649877        -0.777408        -0.918933
 H        -3.633331        -1.810283         0.712317
 H        -2.604341        -2.645842         1.894470
 H        -3.453309        -1.163039         2.313156
 H        -1.541101        -0.034402         2.115839
 H        -2.854695         0.856688        -0.358456
 H        -0.397270         1.559632        -1.112707
 H        -0.599538         1.952998         0.684566
 H         0.805879        -2.360947         0.833243
 H        -0.779917        -3.294696         0.674012
 H         0.210497        -2.779707        -0.927900
