19
Iteration:  1301
 C        -2.811809        -1.643394         1.643142
 C        -1.725035        -0.664248         1.164310
 C        -2.060509         0.337338         0.003012
 C        -0.764499         1.229275        -0.093750
 C         0.266655        -0.029508         0.036496
 O         1.477394        -0.103513         0.096754
 C        -0.700679        -1.164989         0.100085
 C        -0.147375        -2.513043         0.156507
 O        -1.629543        -0.644801        -1.025135
 H        -2.575525        -2.569690         2.213360
 H        -3.452786        -1.141799         2.399289
 H        -3.239723        -1.880625         0.634741
 H        -1.343609        -0.097021         2.036011
 H        -3.055530         0.778480         0.149054
 H        -0.683994         1.879086        -1.119392
 H        -0.558410         2.043299         0.684525
 H         0.464787        -2.755333         1.058779
 H        -0.928271        -3.246518         0.172037
 H         0.355768        -2.694027        -0.773691
