19
Iteration:  3805charge 0 multiplicity 1
 C        -2.882121        -1.584939         1.604566
 C        -1.725984        -0.612171         1.174217
 C        -2.011274         0.337401        -0.030034
 C        -0.715093         1.169540         0.014264
 C         0.254413        -0.032315         0.106499
 O         1.520042         0.037463         0.016735
 C        -0.713872        -1.144213         0.165404
 C        -0.202841        -2.648114         0.119568
 O        -1.623930        -0.712563        -1.000083
 H        -3.193321        -2.072306         0.641287
 H        -2.379809        -2.420062         2.110489
 H        -3.770932        -1.223200         2.075157
 H        -1.424985         0.064031         2.088084
 H        -2.965685         0.857105        -0.275011
 H        -0.508999         1.576148        -0.992278
 H        -0.503488         2.016220         0.756919
 H         0.590398        -2.807000         0.791898
 H        -1.118587        -3.214523         0.317946
 H         0.129798        -2.833377        -0.911313
