19
Iteration:   716
 C        -2.931918        -1.642589         1.470314
 C        -1.725138        -0.580014         1.220062
 C        -2.009050         0.358595         0.073125
 C        -0.685375         1.127378        -0.268128
 C         0.311037         0.062910         0.058892
 O         1.529049         0.110970         0.216370
 C        -0.751787        -1.233089         0.198561
 C        -0.112173        -2.647443         0.085103
 O        -1.696808        -0.741701        -0.910943
 H        -2.569794        -2.545712         2.003912
 H        -3.588852        -1.096286         2.184823
 H        -3.432395        -1.982756         0.548495
 H        -1.439945        -0.049770         2.151433
 H        -3.025402         0.896483         0.033073
 H        -0.713288         1.077252        -1.296177
 H        -0.456964         2.170130         0.114877
 H         0.914042        -2.542388         0.455006
 H        -0.725089        -3.400435         0.571811
 H        -0.194727        -2.817771        -0.975793
