19
Iteration:  3856
 C        -2.929086        -1.485250         1.556796
 C        -1.686367        -0.647431         1.253449
 C        -1.953368         0.242032         0.076259
 C        -0.681632         1.145143        -0.221070
 C         0.274136         0.028673         0.070307
 O         1.479747         0.057476         0.194510
 C        -0.708499        -1.162584         0.107480
 C        -0.145273        -2.640733        -0.039096
 O        -1.703480        -0.743947        -0.896564
 H        -3.753662        -1.486500         0.874842
 H        -2.659993        -2.502483         1.788806
 H        -3.427692        -0.987836         2.419984
 H        -1.253821        -0.326304         2.121109
 H        -2.935366         0.766035        -0.052702
 H        -0.774629         1.512715        -1.226479
 H        -0.538519         2.023791         0.443510
 H         0.421966        -2.719125         0.885083
 H        -0.993584        -3.367059        -0.225233
 H         0.685836        -2.726080        -0.715923
