19
Iteration:  3456
 C        -3.047936        -1.527249         1.423325
 C        -1.776789        -0.698479         1.265771
 C        -1.892580         0.338834         0.077351
 C        -0.639202         1.190003        -0.132599
 C         0.295415         0.028430         0.032475
 O         1.484967         0.073373        -0.008981
 C        -0.689994        -1.212779         0.214642
 C        -0.149878        -2.630885         0.114411
 O        -1.642990        -0.776901        -0.825703
 H        -3.247586        -1.938537         0.416485
 H        -2.697063        -2.386882         2.045358
 H        -3.905155        -0.936535         1.813211
 H        -1.419010        -0.105103         2.151501
 H        -2.776897         1.010244        -0.173949
 H        -0.761442         1.519731        -1.099827
 H        -0.629303         1.861193         0.631815
 H         0.893701        -2.453491         0.458521
 H        -0.751504        -3.314609         0.873228
 H        -0.133695        -2.893723        -0.977017
