19
Iteration:  2407charge 0 multiplicity 1
 C        -3.003578        -1.477352         1.417807
 C        -1.675130        -0.686542         1.282007
 C        -1.846162         0.310730         0.020750
 C        -0.784325         1.221364         0.001909
 C         0.306208         0.055891         0.051598
 O         1.443259         0.147688        -0.077107
 C        -0.656625        -1.290471         0.268534
 C        -0.188066        -2.688656         0.122340
 O        -1.610222        -0.808428        -0.923262
 H        -3.182817        -2.365219         0.768014
 H        -3.190968        -1.802110         2.421716
 H        -3.810751        -0.747311         1.295731
 H        -1.281168        -0.176278         2.195581
 H        -2.830966         0.654309        -0.061961
 H        -0.545585         1.793395        -0.939644
 H        -0.836166         1.969494         0.816837
 H         0.664928        -2.900492         0.764379
 H        -1.001534        -3.383188         0.357272
 H         0.094026        -2.848163        -0.869241
