19
Iteration:  1462charge 0 multiplicity 1
 C        -2.834239        -1.619086         1.606283
 C        -1.713915        -0.624418         1.234771
 C        -2.010174         0.296092         0.053310
 C        -0.701680         1.188926        -0.126158
 C         0.299087         0.043395         0.057869
 O         1.491279         0.142815         0.034884
 C        -0.673816        -1.222957         0.131880
 C        -0.332156        -2.689900         0.088417
 O        -1.572799        -0.718550        -0.923375
 H        -2.756387        -2.562059         2.152226
 H        -3.471958        -1.049172         2.337144
 H        -3.476146        -1.722380         0.697350
 H        -1.215386        -0.177371         2.157354
 H        -2.914763         0.799252        -0.383326
 H        -0.806256         1.514993        -1.189053
 H        -0.583998         2.063599         0.538874
 H         0.045702        -3.109373         1.106847
 H        -1.146764        -3.311757        -0.333692
 H         0.469256        -2.731800        -0.697992
