19
Iteration:  3244charge 0 multiplicity 1
 C        -2.889623        -1.526108         1.588104
 C        -1.839636        -0.599053         1.140456
 C        -1.922523         0.314970        -0.092264
 C        -0.672949         1.194140         0.015354
 C         0.218116         0.047880         0.122557
 O         1.462336        -0.046109         0.039902
 C        -0.701482        -1.218874         0.144046
 C        -0.135890        -2.518602         0.124263
 O        -1.627520        -0.806582        -0.995959
 H        -3.135189        -2.365143         0.863510
 H        -2.660843        -2.030839         2.543526
 H        -3.852586        -0.969929         1.888805
 H        -1.521892        -0.219438         2.181020
 H        -2.879605         0.807904        -0.263039
 H        -0.388768         1.776952        -0.851719
 H        -0.711610         1.661957         0.971484
 H         0.993897        -2.390109         0.400626
 H        -0.582124        -3.267620         0.778944
 H        -0.062874        -2.734124        -1.008941
