19
Iteration:    89
 C        -2.750323        -1.513522         1.736362
 C        -1.788449        -0.530928         1.101354
 C        -2.089174         0.246654        -0.194787
 C        -0.740191         1.162497         0.000924
 C         0.261961        -0.032955         0.015733
 O         1.414043        -0.016794         0.303535
 C        -0.730000        -1.150139         0.058900
 C        -0.069885        -2.518180         0.053809
 O        -1.640802        -0.822659        -1.060791
 H        -2.326787        -2.086098         2.546073
 H        -3.517489        -0.926827         2.248015
 H        -3.268280        -2.134233         1.011045
 H        -1.320234         0.112284         1.808975
 H        -3.063347         0.672767        -0.465691
 H        -0.507736         1.898904        -0.685508
 H        -0.579162         1.408589         0.993888
 H         0.893710        -2.440358         0.581375
 H        -0.811462        -3.239207         0.464942
 H         0.224639        -2.837855        -0.934583
