19
Iteration:  2754charge 0 multiplicity 1
 C        -2.726044        -1.611373         1.498720
 C        -1.731022        -0.507686         1.165555
 C        -2.067773         0.362297        -0.060345
 C        -0.712320         1.197488        -0.191791
 C         0.259943         0.022678         0.102171
 O         1.482334        -0.120125         0.211681
 C        -0.704456        -1.134244         0.158705
 C        -0.198724        -2.547679         0.117768
 O        -1.716853        -0.766469        -0.929582
 H        -2.788764        -2.341825         0.662065
 H        -2.422321        -2.096928         2.432107
 H        -3.727847        -1.122807         1.666172
 H        -1.207931        -0.072207         2.026603
 H        -3.075689         0.707584        -0.141038
 H        -0.521779         1.745794        -1.044963
 H        -0.466748         1.773856         0.737751
 H        -0.019842        -3.009167         1.132662
 H        -0.955723        -3.154347        -0.294797
 H         0.727860        -2.660432        -0.453036
