19
Iteration:  3245
 C        -2.883611        -1.521193         1.590383
 C        -1.841874        -0.596324         1.142155
 C        -1.928573         0.311610        -0.088907
 C        -0.663074         1.192588         0.015992
 C         0.209417         0.052248         0.129866
 O         1.461375        -0.048061         0.040832
 C        -0.698186        -1.214895         0.148072
 C        -0.134469        -2.519638         0.119879
 O        -1.632302        -0.816208        -1.004142
 H        -3.130663        -2.336956         0.848846
 H        -2.652699        -2.010027         2.548711
 H        -3.845027        -0.949393         1.865420
 H        -1.519004        -0.257587         2.201026
 H        -2.910699         0.836636        -0.305083
 H        -0.401137         1.800355        -0.813524
 H        -0.699441         1.672710         0.948921
 H         1.018703        -2.410805         0.393952
 H        -0.571143        -3.303298         0.780277
 H        -0.042446        -2.707913        -1.027055
