19
Iteration:   391
 C        -2.784401        -1.537404         1.781460
 C        -1.695373        -0.617677         1.176182
 C        -2.048995         0.294659        -0.084223
 C        -0.745993         1.116149        -0.179955
 C         0.235358        -0.053566         0.076122
 O         1.410935         0.098839         0.322356
 C        -0.758593        -1.216759         0.025530
 C        -0.102093        -2.616378         0.040906
 O        -1.632972        -0.690668        -1.095446
 H        -2.531788        -2.003616         2.750359
 H        -3.733600        -0.978194         2.018754
 H        -3.128616        -2.339710         1.116859
 H        -1.086342         0.013020         1.861015
 H        -2.952682         0.792972        -0.169818
 H        -0.634725         1.426682        -1.240984
 H        -0.519428         2.061422         0.283163
 H         0.477284        -2.631518         0.958683
 H        -0.918891        -3.374510         0.185729
 H         0.606526        -2.961086        -0.703273
