19
Iteration:   331charge 0 multiplicity 1
 C        -2.793618        -1.530500         1.604634
 C        -1.758531        -0.503527         1.179718
 C        -2.003971         0.281887        -0.102211
 C        -0.777360         1.202718        -0.222613
 C         0.277078         0.031349         0.128588
 O         1.484292         0.064985         0.255274
 C        -0.754767        -1.211797         0.174090
 C        -0.132701        -2.607409         0.011680
 O        -1.641291        -0.883028        -0.929346
 H        -2.248482        -2.441201         1.834359
 H        -3.310058        -1.187014         2.481897
 H        -3.484619        -1.747055         0.792687
 H        -1.355307         0.005924         2.044320
 H        -2.986457         0.836662        -0.284947
 H        -0.724001         1.498078        -1.213990
 H        -0.827537         1.936425         0.581377
 H         0.577341        -2.727846         0.859205
 H        -0.881652        -3.381051         0.128382
 H         0.307819        -2.696397        -0.994117
