19
Iteration:  3339
 C        -2.742101        -1.565462         1.522930
 C        -1.674829        -0.555358         1.208697
 C        -1.999537         0.317172        -0.042666
 C        -0.718279         1.217540        -0.177844
 C         0.263287        -0.042659        -0.046879
 O         1.491977         0.055302         0.285421
 C        -0.627495        -1.149141         0.121479
 C        -0.332864        -2.625082         0.105461
 O        -1.709922        -0.801822        -0.924833
 H        -3.519907        -1.759721         0.748963
 H        -2.276345        -2.498764         1.863322
 H        -3.399522        -1.353209         2.359176
 H        -1.116158        -0.118255         2.036455
 H        -2.936729         0.756869        -0.256255
 H        -0.677867         1.669884        -1.276956
 H        -0.760705         1.922877         0.765683
 H        -0.101043        -3.018349         1.055648
 H        -1.115364        -3.237781        -0.255464
 H         0.602889        -2.619289        -0.376028
