19
Iteration:  2214charge 0 multiplicity 1
 C        -2.825512        -1.590338         1.698790
 C        -1.774199        -0.659077         1.120743
 C        -1.946249         0.345244         0.025668
 C        -0.676356         1.206355        -0.089019
 C         0.198573        -0.070347         0.093887
 O         1.454453        -0.093205         0.134344
 C        -0.797114        -1.185953         0.019386
 C        -0.043986        -2.508269        -0.016075
 O        -1.734328        -0.632732        -0.949504
 H        -2.833827        -1.629186         2.855538
 H        -3.796193        -1.075911         1.533795
 H        -2.871596        -2.651960         1.312320
 H        -1.231356        -0.331859         2.000455
 H        -2.972256         0.841778        -0.029245
 H        -0.401986         1.627671        -1.128322
 H        -0.572195         1.956457         0.645734
 H         0.878830        -2.376663         0.690277
 H        -0.518837        -3.339563         0.621126
 H         0.395234        -2.895464        -0.980230
