19
Iteration:   510
 C        -2.852363        -1.534453         1.478735
 C        -1.827425        -0.522640         1.123459
 C        -2.009065         0.315566        -0.117168
 C        -0.737801         1.062038         0.079437
 C         0.227368        -0.026814         0.077072
 O         1.454424        -0.039858        -0.109423
 C        -0.816636        -1.189448         0.261579
 C        -0.098055        -2.427365         0.274793
 O        -1.499115        -0.804763        -0.943806
 H        -2.453631        -2.419470         1.920684
 H        -3.595030        -1.234104         2.221093
 H        -3.467850        -1.954679         0.720286
 H        -1.405847        -0.021210         2.002349
 H        -3.000203         0.699585        -0.527767
 H        -0.580618         1.818507        -0.649457
 H        -0.691569         1.627478         1.029197
 H         0.718111        -2.303556         1.003310
 H        -0.637068        -3.402962         0.402994
 H         0.425062        -2.459945        -0.689376
