19
Iteration:  1988
 C        -2.830335        -1.574674         1.654365
 C        -1.647186        -0.625289         1.253881
 C        -1.907176         0.280603         0.087155
 C        -0.683284         1.252058        -0.138362
 C         0.267283         0.027678         0.044297
 O         1.496083         0.076842         0.176982
 C        -0.725099        -1.169174         0.035298
 C        -0.258134        -2.574718        -0.052342
 O        -1.768437        -0.833832        -0.922732
 H        -3.175332        -1.413791         2.685066
 H        -3.621571        -1.293258         0.947213
 H        -2.597153        -2.656490         1.506537
 H        -1.155603        -0.070285         2.068103
 H        -2.971930         0.655937        -0.048003
 H        -0.780104         1.468243        -1.265771
 H        -0.252362         1.996601         0.562313
 H         0.028430        -3.095970         0.833571
 H        -1.050591        -3.143932        -0.488974
 H         0.568496        -2.768664        -0.748724
