19
Iteration:    44charge 0 multiplicity 1
 C        -2.937337        -1.563447         1.547195
 C        -1.708637        -0.680101         1.291072
 C        -2.002021         0.266157         0.030311
 C        -0.721540         1.135176        -0.268223
 C         0.273605         0.072844        -0.016904
 O         1.496215         0.156337         0.269191
 C        -0.612855        -1.183274         0.162085
 C        -0.197521        -2.579368         0.030613
 O        -1.635954        -0.792437        -0.928834
 H        -2.695368        -2.450340         2.135602
 H        -3.653498        -1.114836         2.243806
 H        -3.478216        -1.887478         0.650358
 H        -1.287459        -0.285605         2.198144
 H        -2.993005         0.658027        -0.191458
 H        -0.769494         1.412843        -1.323531
 H        -0.520566         1.917665         0.342315
 H         0.860827        -2.641451         0.366088
 H        -0.901058        -3.221775         0.605895
 H        -0.216694        -2.858083        -1.054071
