19
Iteration:  4249charge 0 multiplicity 1
 C        -2.825491        -1.534276         1.488680
 C        -1.750446        -0.549754         1.203934
 C        -1.900322         0.339912        -0.038854
 C        -0.632166         1.164220        -0.078753
 C         0.276266        -0.016979        -0.011332
 O         1.411922         0.069725         0.192710
 C        -0.693674        -1.196533         0.161569
 C        -0.285564        -2.607462        -0.010054
 O        -1.686265        -0.808318        -0.881705
 H        -2.910572        -2.356406         0.737706
 H        -2.343928        -2.110663         2.298612
 H        -3.668152        -0.934996         1.878910
 H        -1.128946        -0.110813         2.166682
 H        -2.959116         0.722433        -0.048416
 H        -0.623769         1.840426        -0.918499
 H        -0.502564         1.430843         1.049462
 H         0.745312        -2.811463         0.390685
 H        -0.929935        -3.111096         0.707995
 H        -0.327206        -2.965076        -1.097695
