19
Iteration:  1603
 C        -2.904683        -1.514888         1.476978
 C        -1.613425        -0.616609         1.252246
 C        -2.015895         0.334596         0.061362
 C        -0.776612         1.214852         0.000004
 C         0.293150         0.022050         0.018196
 O         1.525467         0.107101         0.023125
 C        -0.592814        -1.181156         0.170747
 C        -0.295751        -2.682808         0.043630
 O        -1.641870        -0.849657        -0.925644
 H        -2.849168        -2.104677         2.378355
 H        -3.724045        -0.817730         1.673019
 H        -3.134126        -2.043547         0.545898
 H        -1.103608        -0.218621         2.135208
 H        -3.099520         0.726314         0.086698
 H        -0.656950         1.604993        -0.986817
 H        -0.902687         1.933367         0.813524
 H         0.736522        -2.760310         0.457702
 H        -0.935994        -3.259627         0.717073
 H        -0.358657        -3.128899        -0.935671
