19
Iteration:  2398charge 0 multiplicity 1
 C        -3.036293        -1.414711         1.407189
 C        -1.698482        -0.753095         1.240034
 C        -1.953630         0.246710         0.107838
 C        -0.690381         1.170533        -0.030690
 C         0.227622         0.034101         0.068281
 O         1.469487         0.171519        -0.086725
 C        -0.645109        -1.211095         0.228434
 C        -0.164726        -2.676992         0.122252
 O        -1.549636        -0.778624        -0.886767
 H        -3.193116        -2.425541         0.897927
 H        -2.982188        -1.607208         2.509733
 H        -3.912185        -0.754580         1.154204
 H        -1.273684        -0.308223         2.250337
 H        -2.879047         0.693984        -0.055522
 H        -0.703038         1.555804        -1.119587
 H        -0.729479         1.911572         0.757221
 H         0.655165        -2.980914         0.806610
 H        -0.974558        -3.355387         0.324375
 H         0.043420        -2.796447        -0.945754
