19
Iteration:  2630
 C        -2.961769        -1.677160         1.425704
 C        -1.722066        -0.690795         1.241034
 C        -1.978608         0.452121        -0.028056
 C        -0.792304         1.267650        -0.113745
 C         0.322358         0.021041         0.070047
 O         1.517308        -0.065899         0.048730
 C        -0.701351        -1.145133         0.198511
 C        -0.143362        -2.598123         0.211852
 O        -1.630673        -0.727111        -0.913259
 H        -3.445469        -2.031954         0.452264
 H        -2.615912        -2.520557         2.126056
 H        -3.719065        -1.088085         2.018836
 H        -1.269691        -0.160897         2.179365
 H        -2.933227         0.980609        -0.355693
 H        -0.696574         1.672922        -1.240548
 H        -0.587513         2.161268         0.644213
 H         0.837599        -2.591055         0.674038
 H        -0.718402        -3.360631         0.837625
 H        -0.081297        -2.967772        -0.841921
