19
Iteration:  4665charge 0 multiplicity 1
 C        -2.859358        -1.600162         1.479367
 C        -1.800134        -0.630671         1.180577
 C        -1.995742         0.374682        -0.064297
 C        -0.698417         1.205570         0.057350
 C         0.286806         0.036588         0.029755
 O         1.456285        -0.093368        -0.051291
 C        -0.720524        -1.151334         0.196705
 C        -0.203038        -2.530366         0.205410
 O        -1.556547        -0.759624        -0.912430
 H        -3.161774        -1.846895         0.382672
 H        -2.455396        -2.524451         2.062263
 H        -3.776155        -1.202151         2.033050
 H        -1.372014        -0.224193         2.169380
 H        -2.953228         0.909856        -0.333611
 H        -0.429991         1.953532        -0.665635
 H        -0.687349         1.836303         0.944029
 H         0.383072        -2.844541         1.047788
 H        -1.086206        -3.243131         0.207902
 H         0.260021        -2.658563        -0.726666
