19
Iteration:  3509
 C        -2.824001        -1.633329         1.511193
 C        -1.806098        -0.583176         1.188237
 C        -2.042856         0.380097        -0.086804
 C        -0.629539         1.277322        -0.035147
 C         0.234724        -0.042968         0.060691
 O         1.473714        -0.063680         0.029539
 C        -0.760185        -1.145978         0.161410
 C        -0.153195        -2.594321         0.197956
 O        -1.603226        -0.753323        -0.948064
 H        -3.549967        -1.634657         0.688004
 H        -2.390738        -2.604416         1.895268
 H        -3.489367        -1.226090         2.352259
 H        -1.229169        -0.228160         2.035448
 H        -3.077096         0.820410        -0.426649
 H        -0.335302         1.895161        -0.812446
 H        -0.774321         1.753035         0.978165
 H         0.890417        -2.508217         0.511464
 H        -0.724204        -3.134112         1.050567
 H        -0.245280        -2.992461        -0.827645
