19
Iteration:  1305charge 0 multiplicity 1
 C        -2.831104        -1.633077         1.646459
 C        -1.712880        -0.702490         1.175369
 C        -2.065403         0.330405        -0.000709
 C        -0.758842         1.237722        -0.112774
 C         0.249948        -0.024347         0.016508
 O         1.511989        -0.067151         0.099568
 C        -0.675050        -1.184908         0.095445
 C        -0.168648        -2.539435         0.173484
 O        -1.624738        -0.615754        -0.999182
 H        -2.491551        -2.565858         2.107594
 H        -3.471179        -1.109613         2.360233
 H        -3.417384        -1.839303         0.742606
 H        -1.412254        -0.108168         2.078449
 H        -3.219932         0.652927         0.011746
 H        -0.577512         1.771998        -0.991163
 H        -0.580747         2.007518         0.595192
 H         0.537897        -2.727066         0.970013
 H        -1.035448        -3.268549         0.156575
 H         0.248561        -2.731227        -0.842272
