19
Iteration:  1780charge 0 multiplicity 1
 C        -2.861434        -1.542581         1.652124
 C        -1.740733        -0.543804         1.219833
 C        -1.942215         0.305444         0.020157
 C        -0.659089         1.162019        -0.035625
 C         0.243268        -0.020647         0.108951
 O         1.470334         0.089213         0.034426
 C        -0.750993        -1.196096         0.075885
 C        -0.164164        -2.618437        -0.009533
 O        -1.666673        -0.811928        -0.959550
 H        -2.661342        -2.007567         2.683600
 H        -3.810853        -1.001964         1.881616
 H        -3.132133        -2.422964         1.040499
 H        -1.192244        -0.029819         2.028056
 H        -2.993595         0.702067        -0.069224
 H        -0.632626         1.671721        -1.090975
 H        -0.528355         2.006352         0.647406
 H         0.142133        -2.848857         1.069855
 H        -1.028317        -3.306605        -0.350938
 H         0.712474        -2.786928        -0.698940
