19
Iteration:  4469charge 0 multiplicity 1
 C        -2.995085        -1.522954         1.514765
 C        -1.797858        -0.658158         1.232960
 C        -1.938744         0.344437         0.049189
 C        -0.694742         1.132187        -0.188029
 C         0.279638         0.047239         0.042153
 O         1.528680         0.019839         0.158901
 C        -0.667370        -1.173639         0.162310
 C        -0.161762        -2.574394        -0.013715
 O        -1.648589        -0.778120        -0.848698
 H        -3.598625        -1.710305         0.611939
 H        -2.627588        -2.482420         1.870303
 H        -3.603577        -1.032824         2.275610
 H        -1.378973        -0.324259         2.147552
 H        -2.909947         0.777563        -0.113506
 H        -0.677352         1.584002        -1.156575
 H        -0.330486         1.931421         0.642678
 H         0.894688        -2.675413         0.388844
 H        -0.801156        -3.290493         0.571838
 H        -0.106725        -2.819026        -1.066739
