19
Iteration:  2109charge 0 multiplicity 1
 C        -2.957392        -1.534654         1.474784
 C        -1.675127        -0.651739         1.236893
 C        -1.920581         0.296883         0.149936
 C        -0.730284         1.238775         0.043640
 C         0.310677         0.010193         0.078643
 O         1.453926        -0.023901        -0.111772
 C        -0.664181        -1.163878         0.142813
 C        -0.123414        -2.601792         0.076256
 O        -1.729456        -0.741519        -0.920204
 H        -3.836215        -0.918602         1.476891
 H        -3.214772        -2.381076         0.787844
 H        -2.935680        -2.000562         2.457786
 H        -1.135407        -0.289776         2.133977
 H        -2.921843         0.811863         0.074167
 H        -0.833103         1.786996        -0.900625
 H        -0.552654         1.805464         0.998925
 H         0.851766        -2.626636         0.473697
 H        -0.714887        -3.423474         0.319749
 H         0.053927        -2.681540        -1.025043
