19
Iteration:  1180charge 0 multiplicity 1
 C        -2.922010        -1.588801         1.584677
 C        -1.812999        -0.560859         1.211962
 C        -1.992751         0.316961        -0.058023
 C        -0.649792         1.163164         0.046351
 C         0.316876         0.042308         0.019646
 O         1.515092         0.052819        -0.021117
 C        -0.670554        -1.142994         0.093617
 C        -0.154177        -2.574631         0.136831
 O        -1.697573        -0.871046        -0.948203
 H        -2.491777        -2.557405         1.932027
 H        -3.406941        -1.225080         2.505583
 H        -3.539193        -1.800223         0.683872
 H        -1.297285        -0.189807         2.138026
 H        -2.933264         0.937305        -0.181543
 H        -0.442478         2.067023        -0.698498
 H        -0.819697         1.757537         1.000425
 H        -0.149243        -3.005292         1.155847
 H        -0.937969        -3.111100        -0.343453
 H         0.792743        -2.683262        -0.388744
