19
Iteration:  2695
 C        -2.972464        -1.456045         1.534999
 C        -1.757737        -0.568921         1.162500
 C        -1.951366         0.260308        -0.068527
 C        -0.794655         1.162225         0.025514
 C         0.289713         0.101190         0.080712
 O         1.492232         0.020689         0.052071
 C        -0.694339        -1.224817         0.187979
 C        -0.120449        -2.649947         0.113328
 O        -1.574799        -0.820445        -0.981184
 H        -3.830762        -1.493162         0.808752
 H        -2.820555        -2.556980         1.727649
 H        -3.415674        -1.147377         2.506592
 H        -1.394765        -0.178414         2.167527
 H        -2.893068         0.816423        -0.319378
 H        -0.648963         1.798558        -1.004150
 H        -0.598713         1.948572         0.897705
 H         0.661761        -2.661617         0.883073
 H        -0.995168        -3.376380         0.275938
 H         0.505788        -2.881850        -0.795570
