19
Iteration:  1578
 C        -2.862613        -1.623566         1.570592
 C        -1.777409        -0.625275         1.183470
 C        -1.960193         0.345038         0.022046
 C        -0.641564         1.233273        -0.028896
 C         0.274620        -0.030261        -0.007220
 O         1.434267        -0.013354         0.022240
 C        -0.680055        -1.164575         0.203844
 C        -0.168057        -2.582836         0.114292
 O        -1.696467        -0.711873        -0.945261
 H        -2.659838        -1.950794         2.577898
 H        -3.826424        -1.117949         1.608645
 H        -2.892592        -2.420927         0.836281
 H        -1.257732        -0.325001         2.039718
 H        -2.983592         0.805466        -0.107901
 H        -0.709739         1.614656        -1.037776
 H        -0.532464         1.991152         0.807378
 H         0.818393        -2.523336         0.470051
 H        -0.718933        -3.365710         0.550444
 H        -0.032523        -2.762541        -0.950994
