19
Iteration:   492
 C        -2.919075        -1.556727         1.587985
 C        -1.859910        -0.630173         1.084103
 C        -2.022325         0.347511        -0.123356
 C        -0.764495         1.297755         0.111673
 C         0.214486         0.005348         0.086886
 O         1.437541        -0.124018        -0.072259
 C        -0.664664        -1.155991         0.151041
 C         0.028981        -2.537100         0.323163
 O        -1.588067        -0.807141        -1.068598
 H        -2.453798        -2.518360         2.005902
 H        -3.533498        -1.103151         2.439926
 H        -3.689356        -1.811680         0.775327
 H        -1.467510        -0.061864         1.954712
 H        -2.875484         0.830624        -0.419586
 H        -0.427953         2.115418        -0.647710
 H        -0.796561         1.712486         1.071762
 H         0.899501        -2.432580         1.007049
 H        -0.683604        -3.232250         0.711834
 H         0.506550        -2.892334        -0.594348
