19
Iteration:  4482charge 0 multiplicity 1
 C        -2.936679        -1.538727         1.484398
 C        -1.711405        -0.525017         1.242402
 C        -1.955286         0.325290         0.024541
 C        -0.666133         1.251208        -0.120974
 C         0.295451        -0.030616        -0.005005
 O         1.506659         0.066795         0.202118
 C        -0.716300        -1.224683         0.227719
 C        -0.182143        -2.642195        -0.042708
 O        -1.657803        -0.854122        -0.878350
 H        -3.506104        -1.721709         0.610608
 H        -2.618021        -2.437820         1.944836
 H        -3.609009        -1.235913         2.211733
 H        -1.411291         0.014378         2.150827
 H        -2.873860         0.883719        -0.253001
 H        -0.798372         1.624076        -1.151195
 H        -0.619531         2.115247         0.785665
 H         0.869246        -2.754728         0.255553
 H        -0.948242        -3.434080         0.335992
 H        -0.361195        -2.878651        -1.062365
