19
Iteration:  1541charge 0 multiplicity 1
 C        -2.861195        -1.613995         1.603173
 C        -1.775665        -0.612018         1.206547
 C        -2.000909         0.334632         0.001268
 C        -0.680697         1.281114        -0.006668
 C         0.269357        -0.002375        -0.024331
 O         1.432341        -0.157977         0.026017
 C        -0.770172        -1.202844         0.164722
 C        -0.104235        -2.447878         0.053208
 O        -1.650978        -0.740927        -0.909651
 H        -2.349527        -2.294868         2.360773
 H        -3.814980        -1.204050         2.033283
 H        -3.233682        -2.306576         0.804892
 H        -1.296096        -0.100223         2.117387
 H        -2.914543         0.768638        -0.256659
 H        -0.463225         1.689968        -1.081855
 H        -0.598582         2.212069         0.560506
 H         0.551930        -2.362477         0.986333
 H        -0.651950        -3.437693         0.193302
 H         0.573594        -2.465494        -0.831972
