19
Iteration:   977
 C        -2.891999        -1.618440         1.507527
 C        -1.685289        -0.646869         1.172121
 C        -1.973481         0.389880         0.106860
 C        -0.736737         1.180238        -0.258452
 C         0.308877        -0.004492        -0.022687
 O         1.469168         0.072354         0.269727
 C        -0.653066        -1.183204         0.172667
 C        -0.208965        -2.673557         0.060456
 O        -1.704481        -0.676151        -0.917099
 H        -2.457811        -2.250068         2.278368
 H        -3.724916        -1.079444         2.001764
 H        -3.288368        -2.142631         0.612063
 H        -1.143048        -0.288427         2.069049
 H        -3.021906         0.828166         0.009926
 H        -0.805853         1.302936        -1.300625
 H        -0.503470         2.189793         0.347965
 H         0.887409        -2.612387         0.364706
 H        -0.545887        -3.441932         0.742102
 H        -0.315849        -3.198681        -0.898213
