19
Iteration:  3528
 C        -2.955154        -1.601466         1.611881
 C        -1.765934        -0.559380         1.110228
 C        -1.925275         0.355578        -0.076462
 C        -0.713144         1.197994        -0.002434
 C         0.281148         0.065250         0.122194
 O         1.496412        -0.063520         0.053834
 C        -0.712903        -1.217913         0.140863
 C        -0.141035        -2.557669         0.135531
 O        -1.671666        -0.773225        -0.998379
 H        -3.561151        -2.033401         0.835611
 H        -2.380477        -2.350617         2.153440
 H        -3.619354        -1.055883         2.313337
 H        -1.399543        -0.193833         2.099866
 H        -2.895662         0.841693        -0.239273
 H        -0.562469         1.579815        -1.074652
 H        -0.434623         1.844187         0.922155
 H         0.889702        -2.428142         0.409265
 H        -0.652360        -3.170620         0.800712
 H        -0.165161        -2.874210        -0.890470
