19
Iteration:  4989charge 0 multiplicity 1
 C        -2.919621        -1.623677         1.408994
 C        -1.809889        -0.571990         1.215401
 C        -1.930330         0.385161         0.041524
 C        -0.706705         1.229376         0.004390
 C         0.258663        -0.019801         0.024326
 O         1.484321        -0.011617        -0.065559
 C        -0.698790        -1.163830         0.250941
 C        -0.228012        -2.575195         0.185750
 O        -1.578085        -0.792673        -0.859863
 H        -3.512180        -1.465936         0.425794
 H        -2.358314        -2.609472         1.393013
 H        -3.620083        -1.257743         2.207578
 H        -1.436849        -0.127762         2.225357
 H        -2.808704         0.779810        -0.454032
 H        -0.535044         1.522640        -1.020122
 H        -0.482045         1.888836         0.812624
 H         0.794350        -2.675806         0.622371
 H        -0.756106        -3.413318         0.601085
 H        -0.139569        -2.731110        -0.854014
