19
Iteration:  4638
 C        -2.938094        -1.531331         1.464464
 C        -1.770168        -0.695895         1.175736
 C        -2.007680         0.371054         0.087748
 C        -0.676812         1.197768        -0.008309
 C         0.310097         0.009130         0.025642
 O         1.553238         0.060198         0.004772
 C        -0.676534        -1.216882         0.088789
 C        -0.173282        -2.633594         0.217909
 O        -1.688917        -0.753627        -0.951259
 H        -3.504179        -1.604020         0.551944
 H        -2.759776        -2.553945         1.686183
 H        -3.572045        -1.044385         2.172809
 H        -1.362393        -0.341119         2.132706
 H        -2.963884         0.870017        -0.016332
 H        -0.529831         1.761426        -1.045942
 H        -0.492416         1.957912         0.879403
 H         0.097304        -2.885548         1.281550
 H        -1.034385        -3.286391         0.081035
 H         0.714435        -2.819425        -0.483846
