19
Iteration:  3133charge 0 multiplicity 1
 C        -3.004966        -1.471854         1.639611
 C        -1.802766        -0.644278         1.172433
 C        -1.936166         0.244909        -0.010505
 C        -0.720184         1.208971        -0.081738
 C         0.208087        -0.002026         0.157401
 O         1.440766        -0.081610         0.072027
 C        -0.725774        -1.201928         0.136221
 C        -0.069050        -2.515083         0.098566
 O        -1.543183        -0.738262        -1.054433
 H        -3.547776        -2.003843         0.795998
 H        -2.607144        -2.203905         2.417573
 H        -3.778927        -0.824357         2.120496
 H        -1.121708        -0.249245         1.959475
 H        -2.905988         0.579721        -0.114698
 H        -0.717281         1.720722        -1.063596
 H        -0.465076         2.047369         0.573205
 H         0.929927        -2.333676         0.704999
 H        -0.638929        -3.332551         0.625830
 H         0.327978        -2.750240        -0.924681
