19
Iteration:   277
 C        -2.898463        -1.557698         1.349658
 C        -1.669112        -0.673253         1.190081
 C        -2.008808         0.293541         0.066223
 C        -0.745553         1.222563        -0.149927
 C         0.306741         0.085739         0.016954
 O         1.522655         0.151251         0.095232
 C        -0.694442        -1.225213         0.169628
 C        -0.135664        -2.676770         0.241204
 O        -1.728720        -0.815524        -0.857015
 H        -2.812046        -2.171955         2.242434
 H        -3.728254        -0.882616         1.489862
 H        -3.057989        -2.131958         0.443167
 H        -1.311858        -0.327697         2.167139
 H        -3.027635         0.877980         0.030010
 H        -0.706197         1.552861        -1.166927
 H        -0.725434         2.122518         0.549598
 H         0.752702        -2.814775         0.915570
 H        -0.960167        -3.363359         0.427544
 H         0.248220        -2.895811        -0.786980
