19
Iteration:  3183
 C        -2.861759        -1.564399         1.332964
 C        -1.776196        -0.626172         1.294305
 C        -1.989975         0.391759         0.010198
 C        -0.711787         1.149058        -0.102135
 C         0.327124         0.034435         0.031178
 O         1.511372         0.084890         0.014253
 C        -0.716675        -1.139422         0.187290
 C        -0.224848        -2.626725         0.206973
 O        -1.650627        -0.874442        -0.820350
 H        -3.302970        -1.596748         0.364305
 H        -2.565422        -2.541565         1.707568
 H        -3.677951        -1.158826         1.895948
 H        -1.550143        -0.041901         2.185745
 H        -3.036697         0.861248        -0.200823
 H        -0.257944         1.722618        -0.967622
 H        -0.378455         1.926578         0.669565
 H         0.829755        -2.685564         0.337170
 H        -0.749284        -3.310014         0.894392
 H        -0.403410        -3.004983        -0.788360
