19
Iteration:  4987charge 0 multiplicity 1
 C        -2.919086        -1.633571         1.400336
 C        -1.799148        -0.569908         1.204295
 C        -1.919145         0.387572         0.033003
 C        -0.707712         1.206616         0.017397
 C         0.275882        -0.014677         0.041235
 O         1.478177        -0.011491        -0.076264
 C        -0.704631        -1.167415         0.247776
 C        -0.237446        -2.574185         0.197165
 O        -1.588858        -0.787604        -0.857426
 H        -3.574529        -1.507302         0.458571
 H        -2.372191        -2.678869         1.401598
 H        -3.607894        -1.240751         2.227010
 H        -1.444690        -0.047470         2.190146
 H        -2.799558         0.775568        -0.453900
 H        -0.516575         1.587500        -0.998918
 H        -0.501898         1.981152         0.810424
 H         0.806006        -2.599189         0.602905
 H        -0.770980        -3.333627         0.628434
 H        -0.082524        -2.804135        -0.893116
