19
Iteration:  2188
 C        -2.811613        -1.644549         1.610900
 C        -1.745106        -0.622779         1.169866
 C        -1.975395         0.379067         0.024228
 C        -0.753490         1.225622         0.002059
 C         0.272395         0.002763        -0.053557
 O         1.465085        -0.152052         0.055170
 C        -0.706333        -1.112897         0.181359
 C        -0.168655        -2.500265         0.076421
 O        -1.684703        -0.710419        -1.000570
 H        -2.985157        -1.584069         2.717730
 H        -3.809479        -1.365380         1.193301
 H        -2.563334        -2.686103         1.334916
 H        -1.212949        -0.324468         2.083022
 H        -2.866941         0.881765        -0.070857
 H        -0.682133         1.877279        -0.823086
 H        -0.592383         1.801691         0.980882
 H         0.870259        -2.506865         0.422957
 H        -0.634917        -3.176328         0.798108
 H        -0.125348        -2.881246        -0.929692
