19
Iteration:  2017charge 0 multiplicity 1
 C        -2.758881        -1.555786         1.603235
 C        -1.593021        -0.644641         1.191344
 C        -1.985265         0.326947         0.043086
 C        -0.754764         1.198515        -0.055419
 C         0.354863        -0.002993        -0.015168
 O         1.525112         0.187926         0.166929
 C        -0.687719        -1.246334         0.120587
 C        -0.344123        -2.729248        -0.035133
 O        -1.779247        -0.740398        -0.903643
 H        -3.458320        -0.849728         2.107023
 H        -3.323968        -1.818553         0.742750
 H        -2.400122        -2.395061         2.189466
 H        -1.081300        -0.155534         2.086335
 H        -3.089633         0.725176        -0.090657
 H        -0.851421         1.747485        -1.049064
 H        -0.408672         1.831101         0.762208
 H        -0.176939        -3.427323         0.820035
 H        -1.194876        -3.187235        -0.618453
 H         0.509354        -2.820693        -0.663290
