19
Iteration:  2418charge 0 multiplicity 1
 C        -2.966532        -1.529509         1.503092
 C        -1.709139        -0.604570         1.197425
 C        -1.999815         0.290322        -0.032646
 C        -0.729420         1.295334         0.018910
 C         0.294344         0.048331         0.096025
 O         1.543432         0.099429        -0.078828
 C        -0.683219        -1.228957         0.223262
 C        -0.204327        -2.690714         0.123754
 O        -1.624481        -0.853150        -0.888791
 H        -2.942973        -2.074698         0.544792
 H        -3.122735        -2.181866         2.325918
 H        -3.825524        -0.888601         1.307243
 H        -1.289584        -0.232836         2.145754
 H        -2.943006         0.706877        -0.247586
 H        -0.656591         2.017642        -0.842638
 H        -0.577674         1.802438         0.994999
 H         0.647444        -2.760117         0.804959
 H        -0.963835        -3.404961         0.429238
 H         0.182270        -2.925461        -0.815326
