19
Iteration:  3129
 C        -2.992254        -1.449209         1.664754
 C        -1.811119        -0.669347         1.171193
 C        -1.920279         0.267084        -0.038824
 C        -0.781874         1.206678        -0.063000
 C         0.235506        -0.030135         0.129084
 O         1.433088        -0.085558         0.091341
 C        -0.725151        -1.192179         0.122168
 C        -0.050541        -2.520164         0.115637
 O        -1.553254        -0.725629        -1.055550
 H        -3.351577        -2.031175         0.805437
 H        -2.589935        -2.146341         2.424421
 H        -3.720108        -0.800260         2.143350
 H        -1.223821        -0.313637         2.027799
 H        -2.933379         0.681677        -0.329333
 H        -0.723094         1.704054        -1.130716
 H        -0.379070         2.051405         0.681432
 H         0.851864        -2.529533         0.646649
 H        -0.584713        -3.370720         0.521680
 H         0.349796        -2.662022        -0.854178
