19
Iteration:  3111charge 0 multiplicity 1
 C        -2.907393        -1.506526         1.667378
 C        -1.770842        -0.584821         1.117489
 C        -2.086148         0.363068        -0.126746
 C        -0.710862         1.161971        -0.052871
 C         0.260719        -0.012194         0.036216
 O         1.467228        -0.059483         0.164376
 C        -0.705896        -1.207326         0.152125
 C        -0.051895        -2.603780         0.054339
 O        -1.597198        -0.776403        -0.975220
 H        -3.518298        -2.155985         0.991237
 H        -2.642075        -2.035110         2.644847
 H        -3.668828        -0.742972         1.952499
 H        -1.244065         0.046198         1.880728
 H        -3.020412         0.788238        -0.290381
 H        -0.488891         1.971029        -0.767568
 H        -0.819004         1.811677         0.797655
 H         0.665397        -2.615757         0.971792
 H        -0.864081        -3.389490         0.219677
 H         0.577269        -2.674495        -0.882618
