19
Iteration:   301charge 0 multiplicity 1
 C        -3.001035        -1.621734         1.452966
 C        -1.688295        -0.704992         1.310773
 C        -1.975315         0.292921         0.127125
 C        -0.689055         1.104460        -0.363438
 C         0.329692         0.045288         0.000363
 O         1.527594         0.249090         0.183849
 C        -0.704566        -1.177408         0.140564
 C        -0.210339        -2.586468         0.112663
 O        -1.637167        -0.803786        -0.856803
 H        -2.809895        -2.558581         2.018484
 H        -3.767754        -1.027846         1.965717
 H        -3.292787        -1.783036         0.391272
 H        -1.308044        -0.406053         2.343226
 H        -3.053119         0.809181         0.060516
 H        -0.801334         1.342543        -1.421328
 H        -0.438867         2.070926         0.333550
 H         0.601567        -2.734124         0.884825
 H        -1.117622        -3.131525         0.414288
 H         0.243034        -2.963376        -0.864099
