19
Iteration:   894
 C        -2.857332        -1.595516         1.638155
 C        -1.799940        -0.707604         1.128055
 C        -2.014610         0.391274         0.012112
 C        -0.658469         1.176478        -0.050193
 C         0.234217        -0.060037         0.119892
 O         1.452379         0.008249         0.040351
 C        -0.837359        -1.178898         0.150651
 C        -0.049238        -2.503328         0.144887
 O        -1.639076        -0.721234        -1.064143
 H        -2.478954        -2.376532         2.310967
 H        -3.470983        -0.924890         2.251218
 H        -3.562208        -2.088048         0.939696
 H        -1.199815        -0.438652         2.013971
 H        -2.932525         0.792431        -0.284219
 H        -0.546491         1.670070        -1.063843
 H        -0.363045         1.921311         0.606245
 H         0.249773        -2.683295         1.173725
 H        -0.600979        -3.386297        -0.194568
 H         0.906790        -2.384723        -0.377860
