19
Iteration:  1051charge 0 multiplicity 1
 C        -2.955690        -1.562392         1.699024
 C        -1.781310        -0.759812         1.177982
 C        -1.963320         0.260187        -0.020484
 C        -0.733191         1.194390        -0.038898
 C         0.291040         0.123919         0.073846
 O         1.479085         0.014606         0.100064
 C        -0.729892        -1.178197         0.137672
 C        -0.184001        -2.545316         0.046855
 O        -1.500322        -0.728581        -1.041074
 H        -2.500477        -2.283653         2.384820
 H        -3.544782        -0.887279         2.328641
 H        -3.661013        -2.034664         1.013563
 H        -1.482123        -0.105933         1.990987
 H        -3.000475         0.753073        -0.322098
 H        -0.537490         1.348582        -1.120561
 H        -0.657999         2.123567         0.582281
 H         0.945501        -2.726024         0.088453
 H        -0.700183        -3.164069         0.787995
 H        -0.608410        -3.030553        -0.867691
