19
Iteration:   350
 C        -2.750867        -1.518027         1.790196
 C        -1.747802        -0.516464         1.129119
 C        -2.103992         0.254031        -0.199117
 C        -0.795094         1.138731        -0.069274
 C         0.247000        -0.008643         0.043388
 O         1.432834        -0.066760         0.321984
 C        -0.649418        -1.129686         0.011990
 C        -0.114592        -2.461441         0.084564
 O        -1.650167        -0.853455        -1.066502
 H        -2.223945        -2.393602         2.196038
 H        -3.352547        -1.021947         2.591052
 H        -3.378874        -1.818269         0.954085
 H        -1.327709         0.090793         1.920941
 H        -3.040070         0.533317        -0.511691
 H        -0.479339         1.795035        -1.026365
 H        -0.718054         1.693336         0.820563
 H         0.640880        -2.519524         0.879935
 H        -0.892356        -3.213534         0.142070
 H         0.449946        -2.568565        -0.821587
