19
Iteration:  2544charge 0 multiplicity 1
 C        -2.954187        -1.408294         1.630046
 C        -1.651025        -0.677972         1.225182
 C        -1.953814         0.189961         0.003852
 C        -0.753769         1.154707        -0.199046
 C         0.281568         0.029918         0.097792
 O         1.505200         0.141407         0.204530
 C        -0.671495        -1.309333         0.188087
 C        -0.253488        -2.617415        -0.095755
 O        -1.567039        -0.726137        -0.935677
 H        -3.390192        -1.994328         0.779830
 H        -2.620704        -2.205285         2.392218
 H        -3.723456        -0.725147         2.061478
 H        -1.352925        -0.163623         2.188703
 H        -3.029957         0.557338        -0.166557
 H        -0.844254         1.514001        -1.182416
 H        -0.752634         1.950467         0.580430
 H         0.034637        -3.003144         0.870794
 H        -1.116721        -3.281158        -0.398762
 H         0.499805        -2.667528        -0.899449
