19
Iteration:  2921
 C        -2.893357        -1.469116         1.342264
 C        -1.665353        -0.644147         1.190437
 C        -2.010968         0.303538         0.014956
 C        -0.742362         1.174877        -0.066194
 C         0.296371         0.059670         0.076790
 O         1.495902         0.054154         0.042885
 C        -0.661008        -1.139652         0.179670
 C        -0.257273        -2.612616         0.195339
 O        -1.649884        -0.829244        -0.846587
 H        -2.867229        -2.216179         0.528890
 H        -2.744870        -2.174931         2.189413
 H        -3.953739        -1.084167         1.454967
 H        -1.239400        -0.264634         2.150542
 H        -3.078787         0.672310        -0.225269
 H        -0.336233         1.578579        -1.040249
 H        -0.411611         1.734149         0.743973
 H         0.777038        -2.777806         0.491141
 H        -0.951381        -3.074604         0.906247
 H        -0.292811        -3.095159        -0.811975
