19
Iteration:  1121
 C        -2.874871        -1.658648         1.466992
 C        -1.776601        -0.673510         1.225403
 C        -2.019584         0.350844         0.040898
 C        -0.632704         1.246166        -0.101736
 C         0.277229         0.067102         0.003525
 O         1.512668        -0.055605         0.022807
 C        -0.750479        -1.155080         0.210103
 C        -0.132933        -2.532867         0.146890
 O        -1.679769        -0.736231        -0.873216
 H        -2.711804        -2.341540         2.324807
 H        -3.761158        -1.017986         1.673574
 H        -3.241352        -2.197874         0.592605
 H        -1.294003        -0.444672         2.168023
 H        -2.943539         0.832935        -0.218475
 H        -0.705473         1.675424        -1.111095
 H        -0.655060         2.068817         0.753800
 H         0.800340        -2.502334         0.713013
 H        -0.790718        -3.391309         0.450883
 H         0.125892        -2.777923        -0.918870
