19
Iteration:  1637charge 0 multiplicity 1
 C        -2.960293        -1.579883         1.633443
 C        -1.773452        -0.630779         1.254182
 C        -1.935490         0.371643         0.002652
 C        -0.694181         1.201785        -0.118293
 C         0.349582        -0.042854         0.040315
 O         1.516774         0.185012         0.024550
 C        -0.722656        -1.199277         0.169315
 C        -0.256565        -2.665740         0.031023
 O        -1.606304        -0.810502        -0.905872
 H        -2.813448        -2.672178         1.821309
 H        -3.684660        -1.135504         2.330799
 H        -3.663432        -1.762182         0.800872
 H        -1.231122        -0.425433         2.230210
 H        -2.959350         0.814792        -0.151734
 H        -0.462630         1.729153        -1.071816
 H        -0.587606         2.035780         0.602668
 H         0.824674        -2.633681         0.461800
 H        -0.719006        -3.487132         0.676940
 H        -0.121215        -2.947039        -1.027114
