19
Iteration:  3242charge 0 multiplicity 1
 C        -2.907948        -1.539133         1.583382
 C        -1.830441        -0.604768         1.139822
 C        -1.914548         0.321692        -0.097468
 C        -0.693838         1.195618         0.012861
 C         0.244108         0.032702         0.106662
 O         1.460978        -0.041163         0.038784
 C        -0.712068        -1.218828         0.138893
 C        -0.131283        -2.518986         0.129158
 O        -1.617106        -0.787160        -0.978821
 H        -3.146063        -2.393738         0.903665
 H        -2.662314        -2.069154         2.527184
 H        -3.843147        -1.024606         1.913398
 H        -1.514078        -0.131653         2.100360
 H        -2.836852         0.762046        -0.197219
 H        -0.372464         1.746525        -0.923547
 H        -0.729832         1.673910         1.027134
 H         0.907418        -2.358226         0.410259
 H        -0.613271        -3.209928         0.770870
 H        -0.110570        -2.801897        -0.934185
