19
Iteration:  2032charge 0 multiplicity 1
 C        -2.761663        -1.549639         1.635440
 C        -1.640948        -0.664264         1.250779
 C        -1.953379         0.306713         0.119462
 C        -0.689699         1.196743        -0.074907
 C         0.251353         0.046575         0.033559
 O         1.418791         0.093445         0.101365
 C        -0.726446        -1.194082         0.084687
 C        -0.340097        -2.672144        -0.068870
 O        -1.634924        -0.734206        -0.981642
 H        -3.695655        -1.147391         1.990583
 H        -2.874826        -2.315260         0.847431
 H        -2.486861        -2.159596         2.527913
 H        -1.097816        -0.197846         2.101002
 H        -2.972664         0.852635         0.125124
 H        -0.561083         1.713001        -1.099530
 H        -0.590560         1.924753         0.770954
 H        -0.188489        -2.982965         0.940341
 H        -1.114106        -3.226223        -0.537381
 H         0.598835        -2.880958        -0.621956
