19
Iteration:   926
 C        -2.833465        -1.469387         1.605886
 C        -1.793003        -0.572946         1.209368
 C        -2.079339         0.246011        -0.084337
 C        -0.836015         1.224735        -0.002780
 C         0.301165         0.039264         0.101415
 O         1.547729         0.007369         0.116321
 C        -0.627584        -1.117393         0.166432
 C        -0.154659        -2.642211        -0.025904
 O        -1.595086        -0.849408        -0.973000
 H        -2.654855        -2.077824         2.511519
 H        -3.611321        -0.734894         1.955600
 H        -3.176594        -2.176480         0.797361
 H        -1.287561        -0.065220         2.074612
 H        -3.045459         0.628534        -0.196969
 H        -0.902920         1.937157        -0.851624
 H        -0.693426         1.749903         0.906923
 H         0.489292        -3.156521         0.691551
 H        -1.075741        -3.257181        -0.062308
 H         0.226971        -2.910445        -1.036794
