19
Iteration:   860
 C        -2.872466        -1.643723         1.418727
 C        -1.714793        -0.629901         1.247759
 C        -2.041109         0.372482         0.035000
 C        -0.724584         1.299179        -0.142799
 C         0.312303         0.049822        -0.062714
 O         1.504625        -0.055346         0.045291
 C        -0.749517        -1.173758         0.186881
 C        -0.086743        -2.572960         0.242346
 O        -1.715905        -0.782347        -0.866044
 H        -2.522672        -2.640731         1.686537
 H        -3.480573        -1.247956         2.265391
 H        -3.510101        -1.631724         0.495910
 H        -1.236948        -0.299933         2.195949
 H        -2.976168         0.707045        -0.319384
 H        -0.816138         1.814188        -1.084664
 H        -0.487495         1.939015         0.701824
 H        -0.092181        -2.906547         1.285612
 H        -0.678842        -3.265367        -0.321131
 H         0.931897        -2.517349        -0.151638
