19
Iteration:  2411
 C        -2.982384        -1.502274         1.455066
 C        -1.675501        -0.643193         1.244320
 C        -1.869876         0.307952        -0.012084
 C        -0.792107         1.256994         0.012467
 C         0.300492         0.054605         0.070654
 O         1.481921         0.131705        -0.079068
 C        -0.667195        -1.294290         0.270037
 C        -0.211187        -2.690749         0.126145
 O        -1.625300        -0.827898        -0.918849
 H        -3.093075        -2.289608         0.633800
 H        -3.310498        -2.009223         2.463016
 H        -3.814211        -0.748158         1.278972
 H        -1.281758        -0.184233         2.260136
 H        -2.905185         0.688665        -0.117588
 H        -0.555005         1.940880        -0.863784
 H        -0.705808         1.949945         0.842358
 H         0.734023        -2.822263         0.730366
 H        -1.017643        -3.360017         0.384977
 H         0.250526        -2.934089        -0.922252
