19
Iteration:  4508
 C        -2.784580        -1.532232         1.521790
 C        -1.655802        -0.592543         1.160497
 C        -1.991647         0.303193        -0.049147
 C        -0.694506         1.135741        -0.089040
 C         0.272517         0.014432         0.142164
 O         1.481762         0.040685         0.220805
 C        -0.718762        -1.166159         0.133389
 C        -0.264154        -2.590221        -0.033902
 O        -1.680438        -0.783164        -0.930091
 H        -3.337531        -2.031678         0.702951
 H        -2.442920        -2.217160         2.317182
 H        -3.565812        -1.011148         2.158860
 H        -1.197674        -0.145478         2.109508
 H        -2.865715         0.910118        -0.285176
 H        -0.655965         1.647166        -1.113475
 H        -0.718762         1.782533         0.750254
 H         0.677448        -2.737773         0.486541
 H        -1.079183        -3.040451         0.479826
 H        -0.359542        -3.180523        -0.959733
