19
Iteration:  3594charge 0 multiplicity 1
 C        -2.891065        -1.529707         1.559630
 C        -1.681993        -0.531625         1.228305
 C        -1.969991         0.283081         0.003452
 C        -0.669280         1.116212        -0.133400
 C         0.314928        -0.009446         0.008402
 O         1.512077         0.072247         0.243674
 C        -0.701398        -1.171548         0.127972
 C        -0.226344        -2.581532        -0.052524
 O        -1.763548        -0.823663        -0.869381
 H        -3.040989        -2.277596         0.815262
 H        -2.772423        -2.064797         2.502255
 H        -3.721588        -0.816484         1.642748
 H        -1.000295        -0.189702         2.110815
 H        -2.899456         0.854838        -0.230844
 H        -0.736935         1.403355        -1.257182
 H        -0.686702         2.121443         0.564796
 H         0.445782        -2.851637         0.722287
 H        -0.892074        -3.392022        -0.158739
 H         0.456561        -2.708366        -0.868072
