19
Iteration:  4020
 C        -3.009877        -1.598978         1.546426
 C        -1.816764        -0.683766         1.211208
 C        -2.025456         0.370731         0.034822
 C        -0.678710         1.257578        -0.078429
 C         0.286006        -0.045517         0.018212
 O         1.505267        -0.093356         0.011628
 C        -0.638706        -1.199374         0.148555
 C        -0.044565        -2.498509         0.138165
 O        -1.678090        -0.724902        -0.911223
 H        -3.621599        -1.621281         0.640326
 H        -2.778003        -2.576133         1.910401
 H        -3.475593        -0.873461         2.220495
 H        -1.402528        -0.298526         2.174709
 H        -3.076377         0.738876        -0.106403
 H        -0.486519         1.870366        -0.874708
 H        -0.506474         1.896593         0.772542
 H         0.814733        -2.443627         0.754689
 H        -0.804572        -3.277390         0.218943
 H         0.466922        -2.593858        -0.822337
