19
Iteration:  1136charge 0 multiplicity 1
 C        -2.926983        -1.649883         1.514941
 C        -1.726931        -0.640315         1.211263
 C        -1.951080         0.348183         0.105345
 C        -0.783240         1.228283        -0.101122
 C         0.208440        -0.029901         0.090775
 O         1.436897        -0.147991        -0.001927
 C        -0.700453        -1.128640         0.179590
 C        -0.063022        -2.517951         0.156479
 O        -1.616459        -0.625219        -0.986415
 H        -2.481426        -2.445037         2.168609
 H        -3.829241        -1.366201         2.080022
 H        -3.068168        -2.156542         0.544041
 H        -1.485244         0.010495         2.092213
 H        -2.954025         0.756727        -0.025640
 H        -0.671424         1.623213        -1.196406
 H        -0.340212         2.041316         0.363530
 H         0.600048        -2.456413         1.018184
 H        -0.775884        -3.291019         0.398096
 H         0.423613        -2.700747        -0.793429
