19
Iteration:   641charge 0 multiplicity 1
 C        -2.789653        -1.553664         1.865689
 C        -1.828747        -0.641214         1.077617
 C        -1.990023         0.356995        -0.162876
 C        -0.723452         1.263316        -0.215971
 C         0.183100         0.062784         0.149822
 O         1.398190        -0.017554         0.253789
 C        -0.781663        -1.220495         0.128443
 C        -0.086329        -2.690873         0.056859
 O        -1.546266        -0.755815        -1.061123
 H        -2.236857        -2.406535         2.195831
 H        -3.234956        -1.001279         2.698193
 H        -3.545603        -1.897212         1.173407
 H        -1.326092        -0.120421         1.897931
 H        -2.986852         0.791278        -0.476276
 H        -0.531240         1.650496        -1.283364
 H        -0.704415         2.101361         0.589765
 H         0.592937        -2.754570         0.950813
 H        -0.748025        -3.547654        -0.099976
 H         0.515167        -2.404776        -0.799669
