19
Iteration:  4368charge 0 multiplicity 1
 C        -2.919885        -1.645363         1.551316
 C        -1.737168        -0.701248         1.261202
 C        -1.937978         0.343592         0.026488
 C        -0.662347         1.216588        -0.104254
 C         0.253269         0.048439         0.013686
 O         1.484446         0.051099        -0.030209
 C        -0.706106        -1.211942         0.262448
 C        -0.349186        -2.666630         0.154178
 O        -1.503224        -0.643753        -0.959723
 H        -3.155153        -2.173730         0.603858
 H        -2.572581        -2.308978         2.388946
 H        -3.784093        -1.033362         1.982466
 H        -1.274627        -0.208939         2.092874
 H        -2.819534         0.955961        -0.326097
 H        -0.918192         1.588378        -1.120103
 H        -0.689416         1.981673         0.776500
 H        -0.037071        -3.103116         1.156980
 H        -1.111754        -3.135634        -0.467058
 H         0.612106        -2.715394        -0.506752
