19
Iteration:  1162
 C        -2.849985        -1.626130         1.564112
 C        -1.752548        -0.672052         1.142710
 C        -1.980617         0.356674        -0.050284
 C        -0.724928         1.268222         0.000768
 C         0.262387        -0.000335         0.057839
 O         1.449205        -0.104057        -0.016226
 C        -0.759037        -1.144817         0.177778
 C        -0.122633        -2.523258         0.169987
 O        -1.659443        -0.734556        -0.940737
 H        -2.398783        -2.524836         1.955623
 H        -3.446208        -1.235592         2.384088
 H        -3.485359        -1.890041         0.715587
 H        -1.416947        -0.136291         2.039439
 H        -2.945118         0.910383        -0.369698
 H        -0.590328         1.864219        -0.824966
 H        -0.350030         1.872227         0.793878
 H         0.253146        -2.588887         1.226921
 H        -0.642343        -3.438954        -0.151342
 H         0.737387        -2.356529        -0.493968
