19
Iteration:   753
 C        -2.845174        -1.573603         1.550825
 C        -1.801603        -0.504426         1.148004
 C        -2.031030         0.344507        -0.046667
 C        -0.752101         1.314996         0.026842
 C         0.225553         0.015902         0.026566
 O         1.435305        -0.110678         0.092510
 C        -0.655455        -1.178291         0.168841
 C        -0.061051        -2.579358         0.098279
 O        -1.632896        -0.855670        -0.940780
 H        -2.724717        -2.023851         2.500704
 H        -3.803914        -1.111062         1.535753
 H        -2.964376        -2.317151         0.767098
 H        -1.338649        -0.076434         1.993946
 H        -2.965519         0.674268        -0.349108
 H        -0.553645         2.005548        -0.906325
 H        -0.770666         1.973029         0.840502
 H         0.883300        -2.558604         0.663380
 H        -0.621954        -3.415813         0.497272
 H         0.297337        -2.808500        -0.917942
