19
Iteration:  4737charge 0 multiplicity 1
 C        -2.899985        -1.437333         1.425837
 C        -1.664057        -0.642373         1.183645
 C        -2.019510         0.333899         0.036682
 C        -0.750368         1.141045         0.001286
 C         0.331469        -0.025957         0.099029
 O         1.503521         0.038824         0.107503
 C        -0.667227        -1.213076         0.130556
 C        -0.134488        -2.613254         0.051682
 O        -1.756797        -0.792117        -0.906812
 H        -3.184053        -2.009390         0.616031
 H        -2.975024        -1.897590         2.338449
 H        -3.674520        -0.697392         1.528504
 H        -1.161692        -0.420053         2.062287
 H        -2.913844         0.739763        -0.320178
 H        -0.711906         1.789671        -0.901309
 H        -0.502434         1.927282         0.725784
 H         0.680448        -2.686289         0.839908
 H        -0.717072        -3.338741         0.517708
 H         0.090695        -2.911338        -1.035075
