19
Iteration:   439charge 0 multiplicity 1
 C        -2.862916        -1.491976         1.399321
 C        -1.728161        -0.567622         1.314087
 C        -1.937487         0.253265        -0.037386
 C        -0.762549         1.186160        -0.219062
 C         0.276954         0.085910         0.079464
 O         1.481352         0.142428         0.129447
 C        -0.657194        -1.185317         0.234912
 C        -0.205917        -2.680858         0.051314
 O        -1.684633        -0.902219        -0.776707
 H        -2.701347        -2.344064         2.097205
 H        -3.813085        -1.124793         1.777200
 H        -3.125548        -2.014544         0.469708
 H        -1.360853        -0.044091         2.197197
 H        -2.800573         0.830990        -0.239769
 H        -0.534772         1.640640        -1.257680
 H        -0.585049         2.058780         0.422698
 H         0.729012        -2.943148         0.582284
 H        -0.968338        -3.413633         0.159340
 H         0.168666        -2.721630        -0.985688
