19
Iteration:   375
 C        -2.771908        -1.528125         1.866252
 C        -1.733255        -0.721589         1.013860
 C        -1.993537         0.399665        -0.088703
 C        -0.759791         1.280291        -0.185872
 C         0.195736         0.024791         0.084623
 O         1.379766        -0.014149         0.332259
 C        -0.749019        -1.265495        -0.039581
 C        -0.089662        -2.617379         0.144891
 O        -1.636733        -0.745414        -1.111944
 H        -2.136213        -1.977032         2.618670
 H        -3.460793        -0.828191         2.292300
 H        -3.254142        -2.281966         1.227034
 H        -1.186848        -0.371133         1.892930
 H        -3.110478         0.661693        -0.388083
 H        -0.550101         1.737322        -1.167930
 H        -0.688075         1.917487         0.727176
 H         0.650923        -2.477086         0.981369
 H        -0.682731        -3.509436         0.227064
 H         0.566679        -2.624256        -0.762132
