19
Iteration:  4914
 C        -3.007497        -1.545347         1.484684
 C        -1.785367        -0.609562         1.205334
 C        -1.943225         0.320509        -0.020880
 C        -0.680952         1.234973         0.065078
 C         0.294520         0.008885         0.135742
 O         1.497866        -0.049429        -0.065229
 C        -0.705071        -1.165631         0.253804
 C        -0.108774        -2.569655         0.083161
 O        -1.652259        -0.813307        -0.920221
 H        -3.249320        -2.169636         0.596336
 H        -2.896176        -2.197009         2.317768
 H        -3.764044        -0.773315         1.531011
 H        -1.363188        -0.157125         2.103284
 H        -2.849991         0.945748        -0.086855
 H        -0.547395         1.688814        -1.023049
 H        -0.682113         2.157174         0.723029
 H         0.966611        -2.632896         0.483019
 H        -0.874269        -3.455264         0.316899
 H         0.196184        -2.736946        -0.949785
