19
Iteration:  3707
 C        -3.043752        -1.491293         1.486637
 C        -1.740294        -0.648566         1.215306
 C        -1.973174         0.247995         0.080282
 C        -0.759688         1.183881        -0.140113
 C         0.329288         0.019358         0.092510
 O         1.534186         0.028052        -0.005901
 C        -0.656836        -1.215600         0.214108
 C        -0.146172        -2.606341         0.055603
 O        -1.594880        -0.716754        -0.846654
 H        -3.437573        -2.013035         0.587520
 H        -2.825273        -2.290202         2.206110
 H        -3.813798        -0.897349         1.954771
 H        -1.276594        -0.435539         2.170468
 H        -3.007559         0.604776        -0.104792
 H        -0.810310         1.581446        -1.137448
 H        -0.476877         2.007000         0.548218
 H         0.539384        -2.579276         0.811756
 H        -1.004026        -3.248777         0.213979
 H         0.208183        -2.620672        -0.934334
