19
Iteration:  3684charge 0 multiplicity 1
 C        -2.919711        -1.529824         1.582043
 C        -1.728611        -0.633896         1.201289
 C        -1.994562         0.353148        -0.002638
 C        -0.642035         1.185823        -0.081970
 C         0.281434         0.011293         0.118154
 O         1.441066         0.046507         0.055211
 C        -0.694554        -1.215069         0.168794
 C        -0.171801        -2.628786         0.092619
 O        -1.621050        -0.796526        -1.010687
 H        -3.595382        -1.757846         0.768542
 H        -2.602667        -2.516157         1.920350
 H        -3.468667        -1.154585         2.429807
 H        -1.265055        -0.179183         2.115502
 H        -2.945174         0.888039        -0.273534
 H        -0.745109         1.788733        -0.931502
 H        -0.538240         1.999296         0.706021
 H         0.365584        -2.629704         0.978243
 H        -1.057848        -3.264704         0.120578
 H         0.402308        -2.726795        -0.765349
