19
Iteration:  1782
 C        -2.867491        -1.545207         1.667980
 C        -1.752348        -0.554433         1.209146
 C        -1.958974         0.331167         0.013745
 C        -0.672421         1.162381        -0.029154
 C         0.255734        -0.009464         0.098786
 O         1.460537         0.070873         0.033477
 C        -0.735088        -1.199532         0.063226
 C        -0.147638        -2.620807        -0.006226
 O        -1.669703        -0.799765        -0.954252
 H        -2.674488        -2.018018         2.668054
 H        -3.827617        -1.024029         1.922665
 H        -3.160305        -2.410291         1.014624
 H        -1.159328        -0.089573         2.063356
 H        -2.919465         0.727900        -0.107555
 H        -0.564966         1.623015        -1.045358
 H        -0.531982         1.998785         0.609750
 H         0.179181        -2.801597         1.065562
 H        -1.010285        -3.325157        -0.271616
 H         0.782144        -2.824489        -0.677277
