19
Iteration:   281
 C        -2.902236        -1.544388         1.336041
 C        -1.679198        -0.685044         1.189186
 C        -2.001142         0.270167         0.102408
 C        -0.761072         1.239880        -0.159694
 C         0.335446         0.081964        -0.007557
 O         1.546258         0.172720         0.113437
 C        -0.703511        -1.242663         0.158357
 C        -0.170065        -2.670937         0.228728
 O        -1.721644        -0.810809        -0.843274
 H        -2.770310        -2.210480         2.220632
 H        -3.774225        -0.873658         1.530973
 H        -3.088039        -2.129298         0.405119
 H        -1.276014        -0.303199         2.182077
 H        -2.883889         0.869388         0.004976
 H        -0.868159         1.293089        -1.298988
 H        -0.724078         2.132132         0.541100
 H         0.658740        -2.732214         0.932155
 H        -0.886253        -3.475434         0.515956
 H         0.231267        -2.783260        -0.796481
