19
Iteration:  3001charge 0 multiplicity 1
 C        -2.889719        -1.490408         1.624730
 C        -1.741833        -0.576493         1.157338
 C        -2.064774         0.320114        -0.070311
 C        -0.707373         1.255884        -0.114892
 C         0.232914        -0.046997         0.077210
 O         1.476288        -0.072104         0.165796
 C        -0.699751        -1.181302         0.126802
 C        -0.091698        -2.559481         0.110821
 O        -1.634714        -0.815022        -0.989742
 H        -3.502169        -1.739014         0.726682
 H        -2.409916        -2.375539         2.123467
 H        -3.507350        -0.888511         2.300216
 H        -1.493854         0.089950         2.032208
 H        -3.007866         0.720552        -0.355655
 H        -0.627854         1.935817        -0.922011
 H        -0.598885         1.750198         0.794198
 H         0.426807        -2.720644         1.117331
 H        -0.628003        -3.563042        -0.147223
 H         0.657600        -2.714877        -0.703233
