19
Iteration:  4940
 C        -2.998018        -1.550691         1.466475
 C        -1.789492        -0.647971         1.184860
 C        -1.958351         0.327190         0.035820
 C        -0.695808         1.176753         0.043307
 C         0.227964        -0.045656        -0.004365
 O         1.442744        -0.042938        -0.085757
 C        -0.746982        -1.188384         0.153133
 C        -0.098359        -2.570982         0.224909
 O        -1.506720        -0.657381        -0.944666
 H        -3.498844        -1.872428         0.586760
 H        -2.571238        -2.381038         2.042121
 H        -3.653911        -0.841097         1.948795
 H        -1.409897        -0.353663         2.168727
 H        -2.923455         0.902276        -0.000861
 H        -0.623956         1.953629        -0.817083
 H        -0.600443         1.608868         1.115877
 H         0.850289        -2.399565         0.718570
 H        -0.748439        -3.253380         0.892253
 H         0.142814        -3.199821        -0.704830
