19
Iteration:  4417
 C        -2.895691        -1.616202         1.531112
 C        -1.716118        -0.574768         1.200866
 C        -2.016957         0.408549        -0.104507
 C        -0.680230         1.231064         0.041981
 C         0.285502        -0.053795        -0.035643
 O         1.469149        -0.076089         0.051048
 C        -0.744022        -1.164848         0.186457
 C        -0.109639        -2.536275         0.127543
 O        -1.682238        -0.770072        -0.919604
 H        -3.278641        -1.997368         0.618236
 H        -2.705002        -2.292164         2.327609
 H        -3.617541        -0.948137         1.898063
 H        -1.243291        -0.102697         2.110565
 H        -3.074182         0.645366        -0.193554
 H        -0.502242         1.950286        -0.752200
 H        -0.475914         1.468702         1.024021
 H         0.519297        -2.628525         0.971387
 H        -0.948053        -3.231821        -0.039854
 H         0.487976        -2.690213        -0.720484
