19
Iteration:  1648charge 0 multiplicity 1
 C        -2.937659        -1.582128         1.640313
 C        -1.813344        -0.626299         1.222803
 C        -1.950855         0.357779         0.019360
 C        -0.700516         1.241913        -0.084076
 C         0.279623        -0.027763         0.087886
 O         1.500535         0.068935         0.033678
 C        -0.712136        -1.247818         0.125693
 C        -0.141440        -2.602485         0.087738
 O        -1.629533        -0.766949        -0.945553
 H        -2.490524        -2.593185         1.807143
 H        -3.388899        -1.297759         2.604663
 H        -3.595676        -1.506992         0.782532
 H        -1.366978        -0.044022         2.081288
 H        -2.911341         0.774763        -0.365869
 H        -0.722521         1.416772        -1.175416
 H        -0.418468         2.085519         0.541260
 H         0.930449        -2.736578         0.437869
 H        -0.907627        -3.368924         0.411388
 H        -0.119068        -2.756586        -1.003597
