19
Iteration:   675
 C        -2.812829        -1.436073         1.570782
 C        -1.664102        -0.645035         1.143416
 C        -1.971412         0.185851        -0.009759
 C        -0.752734         1.086760        -0.194795
 C         0.305148         0.060105        -0.009049
 O         1.462628         0.148949         0.359169
 C        -0.687656        -1.117126         0.050732
 C        -0.264543        -2.565515         0.088867
 O        -1.690463        -0.913097        -0.943470
 H        -2.588891        -2.453401         1.643478
 H        -3.180393        -1.129072         2.530116
 H        -3.629926        -1.335739         0.868384
 H        -1.198597        -0.017025         1.865169
 H        -2.945249         0.624832        -0.107177
 H        -0.659203         1.865013        -1.119658
 H        -0.583958         1.709610         0.718809
 H         0.753018        -2.718010         0.626568
 H        -0.945857        -3.372233         0.315035
 H         0.029637        -2.815743        -0.943447
