19
Iteration:  1723
 C        -2.835520        -1.589583         1.631158
 C        -1.672623        -0.639699         1.241121
 C        -1.981436         0.352912         0.046584
 C        -0.675676         1.111306        -0.150890
 C         0.294822         0.040712        -0.014738
 O         1.522504         0.121999         0.148731
 C        -0.789153        -1.198087         0.133333
 C        -0.262381        -2.621458         0.037675
 O        -1.696125        -0.753503        -0.954669
 H        -2.518376        -2.189415         2.487248
 H        -3.730732        -1.005423         1.873644
 H        -3.067386        -2.208461         0.770223
 H        -0.999426        -0.371103         2.016595
 H        -2.995865         0.919254        -0.048296
 H        -0.755811         1.384525        -1.225257
 H        -0.514464         2.002045         0.524160
 H        -0.057632        -2.920180         1.064636
 H        -0.919612        -3.384887        -0.385941
 H         0.629202        -2.628735        -0.546383
