19
Iteration:  3943
 C        -2.856368        -1.647792         1.625339
 C        -1.741162        -0.650464         1.207725
 C        -2.003023         0.398168        -0.053907
 C        -0.684502         1.198294        -0.081115
 C         0.296182        -0.039815         0.067198
 O         1.477636         0.078415         0.153389
 C        -0.699613        -1.204822         0.076797
 C        -0.270945        -2.617880         0.048025
 O        -1.595059        -0.701739        -0.969227
 H        -3.071577        -2.490869         0.969641
 H        -2.561468        -2.130328         2.594291
 H        -3.774186        -1.031734         1.907669
 H        -1.110924        -0.190429         2.161760
 H        -2.953155         0.957306        -0.296562
 H        -0.725498         1.583980        -1.054731
 H        -0.456731         2.044388         0.569305
 H         0.492552        -2.833243         0.767112
 H        -1.178116        -3.209708         0.418303
 H        -0.036623        -2.988346        -0.941711
