19
Iteration:   808charge 0 multiplicity 1
 C        -3.099880        -1.665298         1.595113
 C        -1.835239        -0.638826         1.175681
 C        -1.949486         0.340608         0.053772
 C        -0.703603         1.229670        -0.108122
 C         0.360103         0.099394         0.026507
 O         1.572313         0.132346        -0.087006
 C        -0.688640        -1.199501         0.218005
 C        -0.203070        -2.653561         0.166271
 O        -1.526570        -0.794620        -0.920757
 H        -2.758364        -2.257218         2.421021
 H        -3.769379        -0.983465         2.031476
 H        -3.501748        -2.320257         0.856628
 H        -1.345883        -0.347175         2.057192
 H        -2.902713         0.729050        -0.180776
 H        -0.815555         1.857294        -1.085278
 H        -0.718389         1.773777         0.778278
 H         0.031322        -3.010195         1.164562
 H        -0.972905        -3.321891        -0.245503
 H         0.699047        -2.705737        -0.482100
