19
Iteration:  4379
 C        -2.850224        -1.634268         1.572333
 C        -1.787594        -0.668444         1.195700
 C        -1.997380         0.409950        -0.013761
 C        -0.746477         1.235662        -0.049473
 C         0.316255        -0.016250         0.095115
 O         1.483314         0.029932        -0.053309
 C        -0.666676        -1.188199         0.249809
 C        -0.309651        -2.665196         0.106218
 O        -1.536020        -0.659718        -0.926688
 H        -3.139871        -2.311431         0.722907
 H        -2.601098        -2.339407         2.409853
 H        -3.829798        -1.091022         1.799431
 H        -1.424329        -0.268741         2.130323
 H        -2.986142         0.844765        -0.354325
 H        -0.417095         1.593716        -1.069225
 H        -0.377496         2.187122         0.501263
 H        -0.141203        -3.117268         1.147000
 H        -1.145290        -3.290339        -0.231581
 H         0.640220        -2.841431        -0.523027
