19
Iteration:  1084charge 0 multiplicity 1
 C        -2.907525        -1.455321         1.503272
 C        -1.725750        -0.603492         1.278353
 C        -1.974162         0.262433         0.017700
 C        -0.759947         1.146038         0.024668
 C         0.297588         0.035318         0.007701
 O         1.520077         0.195590         0.054865
 C        -0.714628        -1.228447         0.180676
 C        -0.224798        -2.767185         0.008344
 O        -1.598275        -0.806780        -0.913886
 H        -2.766528        -2.093771         2.368802
 H        -3.734194        -0.771520         1.649390
 H        -3.011637        -2.111779         0.627989
 H        -1.340202         0.032211         2.108846
 H        -3.029785         0.692320        -0.357809
 H        -0.502647         1.742947        -0.858179
 H        -0.742576         1.944072         0.829058
 H         0.908160        -2.985750         0.158966
 H        -0.744905        -3.364304         0.744031
 H        -0.440725        -3.013756        -1.047394
