19
Iteration:  4743
 C        -2.912162        -1.440326         1.437075
 C        -1.615136        -0.646209         1.182325
 C        -2.038886         0.361697         0.025369
 C        -0.729420         1.176949        -0.020735
 C         0.289009        -0.034513         0.126609
 O         1.516208         0.055501         0.123579
 C        -0.690012        -1.246468         0.118743
 C        -0.111325        -2.646923         0.051050
 O        -1.764116        -0.805141        -0.916181
 H        -3.245030        -2.011812         0.476818
 H        -2.888289        -2.078809         2.453268
 H        -3.622097        -0.563580         1.594441
 H        -1.239770        -0.193003         2.219731
 H        -3.080639         0.797360        -0.244596
 H        -0.586710         1.756747        -0.937654
 H        -0.509499         1.971672         0.718783
 H         0.796330        -2.638891         0.632092
 H        -0.940562        -3.396691         0.383332
 H         0.206503        -2.981698        -0.931882
