19
Iteration:   494
 C        -2.912882        -1.561915         1.582308
 C        -1.862596        -0.622011         1.090945
 C        -2.036499         0.356267        -0.132139
 C        -0.768983         1.282201         0.115312
 C         0.222273        -0.008181         0.088743
 O         1.432740        -0.122725        -0.076337
 C        -0.669985        -1.148342         0.155894
 C         0.028774        -2.529686         0.326212
 O        -1.580250        -0.815422        -1.066688
 H        -2.408351        -2.476698         1.990971
 H        -3.453596        -1.050916         2.400488
 H        -3.632843        -1.755439         0.746766
 H        -1.492556        -0.058933         1.960575
 H        -2.911480         0.886988        -0.439776
 H        -0.444269         2.061386        -0.633563
 H        -0.771994         1.682662         1.161297
 H         0.879876        -2.442786         1.019128
 H        -0.666536        -3.256088         0.696933
 H         0.485808        -2.845653        -0.632432
