19
Iteration:   495charge 0 multiplicity 1
 C        -2.910901        -1.564909         1.579119
 C        -1.862424        -0.616904         1.093772
 C        -2.040503         0.359020        -0.135450
 C        -0.769958         1.273159         0.115720
 C         0.228045        -0.012525         0.088987
 O         1.429698        -0.121299        -0.077978
 C        -0.674855        -1.146883         0.158845
 C         0.028685        -2.524406         0.326575
 O        -1.576070        -0.818316        -1.064515
 H        -2.397022        -2.449657         1.978654
 H        -3.414243        -1.031349         2.377511
 H        -3.598993        -1.734830         0.743793
 H        -1.501185        -0.059023         1.964848
 H        -2.948310         0.916343        -0.455779
 H        -0.460940         2.023011        -0.617743
 H        -0.760688         1.670878         1.198413
 H         0.866532        -2.444343         1.025648
 H        -0.666098        -3.278303         0.691799
 H         0.470933        -2.823669        -0.648690
