19
Iteration:   656
 C        -2.842811        -1.527539         1.760929
 C        -1.716026        -0.566866         1.160740
 C        -2.031667         0.325514        -0.194988
 C        -0.796315         1.211780        -0.117809
 C         0.283737        -0.023577         0.079458
 O         1.475619         0.085528         0.321696
 C        -0.679822        -1.208106         0.042920
 C        -0.116666        -2.620383         0.024243
 O        -1.669503        -0.839352        -1.035428
 H        -2.489660        -2.532260         2.047208
 H        -3.184463        -1.124553         2.714005
 H        -3.787103        -1.613047         1.205284
 H        -1.223929         0.023464         1.960385
 H        -2.950380         0.745815        -0.444867
 H        -0.502088         1.585538        -1.159697
 H        -0.793070         2.034709         0.492951
 H         0.571512        -2.867380         0.824565
 H        -0.951975        -3.292871         0.274898
 H         0.435807        -3.025515        -0.836853
