19
Iteration:  4620charge 0 multiplicity 1
 C        -3.033854        -1.549504         1.458470
 C        -1.661042        -0.666201         1.240711
 C        -1.903453         0.300305         0.050326
 C        -0.693155         1.094329        -0.105700
 C         0.294110        -0.022605         0.100495
 O         1.516340         0.112801         0.036183
 C        -0.744519        -1.223433         0.154145
 C        -0.212661        -2.592853         0.107733
 O        -1.659014        -0.687103        -0.908155
 H        -3.682600        -1.507012         0.529300
 H        -2.760522        -2.521534         1.916675
 H        -3.565365        -0.993993         2.291420
 H        -1.050415        -0.412707         2.162022
 H        -2.851262         0.798830        -0.065715
 H        -0.700700         1.477088        -1.098675
 H        -0.454364         1.964964         0.377939
 H         0.078314        -2.776572         1.158729
 H        -0.768468        -3.415442        -0.237378
 H         0.722607        -2.540953        -0.431862
