19
Iteration:  3416charge 0 multiplicity 1
 C        -2.929697        -1.462484         1.573572
 C        -1.774173        -0.613693         1.214232
 C        -1.877010         0.267829        -0.042053
 C        -0.764212         1.187649        -0.020715
 C         0.251612         0.075447         0.086102
 O         1.488963        -0.057407         0.060403
 C        -0.721898        -1.169079         0.150041
 C        -0.099012        -2.558314         0.020070
 O        -1.647725        -0.837976        -0.916030
 H        -3.295975        -2.175465         0.818488
 H        -2.876936        -1.836093         2.577274
 H        -3.859843        -0.913624         1.554179
 H        -1.212611        -0.220757         2.112974
 H        -2.822728         0.684849        -0.206276
 H        -0.619215         1.784057        -1.053753
 H        -0.800165         2.033078         0.818694
 H         0.700731        -2.768609         0.709550
 H        -0.804465        -3.305231         0.262948
 H         0.334966        -2.728204        -0.953994
