19
Iteration:   107
 C        -2.784262        -1.551408         1.655359
 C        -1.777111        -0.593405         1.092099
 C        -1.970878         0.367982        -0.126472
 C        -0.768047         1.225207        -0.078689
 C         0.273453         0.041100         0.065245
 O         1.455167        -0.067461         0.273253
 C        -0.746577        -1.129194         0.095844
 C        -0.140562        -2.507446         0.052418
 O        -1.672031        -0.940353        -0.964265
 H        -2.070192        -1.983147         2.398458
 H        -3.645123        -1.054799         2.144917
 H        -3.092708        -2.362007         0.969743
 H        -1.378068        -0.098924         2.005756
 H        -2.868893         0.860118        -0.467368
 H        -0.729940         1.996657        -1.037582
 H        -0.937334         1.915494         0.792588
 H         0.769943        -2.479377         0.704897
 H        -0.789076        -3.395416         0.165960
 H         0.402598        -2.555180        -0.963866
