19
Iteration:  1288
 C        -2.765265        -1.627404         1.587639
 C        -1.727037        -0.591602         1.187646
 C        -1.980108         0.393643         0.041009
 C        -0.735635         1.205705        -0.033170
 C         0.198885         0.035084         0.054837
 O         1.442846        -0.179149         0.089805
 C        -0.765592        -1.128479         0.105399
 C        -0.115296        -2.495879         0.102398
 O        -1.682489        -0.746530        -1.022110
 H        -2.184392        -2.359264         2.197249
 H        -3.661172        -1.159513         2.037424
 H        -3.295980        -2.191913         0.790085
 H        -1.161444        -0.190892         2.024225
 H        -2.843709         0.867602        -0.266051
 H        -0.770045         1.730392        -1.073284
 H        -0.659123         1.942020         0.844259
 H         0.375678        -2.459083         1.103587
 H        -0.814735        -3.302234        -0.008466
 H         0.752482        -2.601414        -0.560484
