19
Iteration:  2475
 C        -2.837948        -1.663857         1.558029
 C        -1.789017        -0.617232         1.152557
 C        -1.940219         0.383772         0.006366
 C        -0.745150         1.314673        -0.167827
 C         0.192954         0.014965         0.102346
 O         1.424008        -0.161326         0.124541
 C        -0.707720        -1.132736         0.098662
 C        -0.108232        -2.546303         0.173547
 O        -1.612888        -0.696904        -0.966692
 H        -3.763583        -1.844267         0.986009
 H        -2.303738        -2.652282         1.584153
 H        -3.149051        -1.434269         2.597351
 H        -1.216308        -0.245095         2.095177
 H        -2.890864         0.813224        -0.142518
 H        -0.747103         1.440980        -1.330665
 H        -0.591266         2.172103         0.488565
 H         0.276660        -2.457115         1.188192
 H        -0.788100        -3.342170         0.256810
 H         0.644725        -2.795782        -0.610899
