19
Iteration:   645charge 0 multiplicity 1
 C        -2.811914        -1.559688         1.864010
 C        -1.800267        -0.634359         1.092701
 C        -1.986018         0.374588        -0.179431
 C        -0.760042         1.283520        -0.179991
 C         0.213929         0.024580         0.131147
 O         1.411940         0.009245         0.270184
 C        -0.767731        -1.179929         0.110442
 C        -0.081893        -2.714283         0.070609
 O        -1.580477        -0.781427        -1.060668
 H        -2.332087        -2.512592         2.154767
 H        -3.172053        -0.989619         2.710848
 H        -3.580620        -1.835283         1.122613
 H        -1.284514        -0.013574         1.858439
 H        -2.897545         0.758415        -0.473838
 H        -0.461529         1.577086        -1.235324
 H        -0.746908         2.067963         0.461793
 H         0.608224        -2.751838         0.900405
 H        -0.749275        -3.538972        -0.135517
 H         0.463104        -2.579235        -0.903008
