19
Iteration:  4516
 C        -2.817205        -1.569226         1.619717
 C        -1.707200        -0.641025         1.149853
 C        -1.955376         0.322892         0.006513
 C        -0.718680         1.199071        -0.062879
 C         0.305280        -0.029006         0.056017
 O         1.482852         0.022376         0.250685
 C        -0.675701        -1.169497         0.023185
 C        -0.293763        -2.566957         0.044437
 O        -1.673531        -0.755839        -1.009409
 H        -3.213649        -2.184942         0.843382
 H        -2.430040        -2.281144         2.332031
 H        -3.544526        -0.888656         1.969624
 H        -1.295383        -0.061428         2.023461
 H        -2.956679         0.815316        -0.189634
 H        -0.606923         1.473899        -1.187840
 H        -0.718964         2.066322         0.807105
 H         0.649007        -2.744065         0.555705
 H        -1.082904        -3.158391         0.671537
 H        -0.166164        -2.895081        -1.002722
