19
Iteration:   788
 C        -2.998635        -1.557661         1.677654
 C        -1.811214        -0.779020         1.170748
 C        -1.974508         0.271879        -0.073588
 C        -0.676880         1.218308         0.066604
 C         0.253959         0.025239         0.033929
 O         1.457373         0.063989        -0.052945
 C        -0.663445        -1.139394         0.135304
 C        -0.161705        -2.550361         0.180865
 O        -1.527557        -0.757025        -1.026427
 H        -2.843300        -1.954741         2.707406
 H        -3.858475        -0.903254         1.631567
 H        -3.116658        -2.367136         0.979840
 H        -1.407556        -0.208832         2.032754
 H        -2.957984         0.728338        -0.309933
 H        -0.488788         1.637441        -1.003803
 H        -0.508482         1.847560         0.972328
 H         0.331436        -2.558524         1.149766
 H        -1.003730        -3.316690         0.142363
 H         0.597807        -2.721724        -0.616185
