19
Iteration:  4032charge 0 multiplicity 1
 C        -3.032463        -1.609873         1.558262
 C        -1.754166        -0.701328         1.137673
 C        -2.010941         0.335810         0.039127
 C        -0.638728         1.191483        -0.050009
 C         0.296686         0.058864         0.101865
 O         1.533631        -0.108057        -0.033087
 C        -0.769396        -1.099823         0.130714
 C        -0.046160        -2.496248         0.124200
 O        -1.665280        -0.709299        -0.931647
 H        -3.712753        -2.025095         0.772410
 H        -2.690895        -2.483094         2.090052
 H        -3.700885        -1.246464         2.342056
 H        -1.324736        -0.223972         2.102272
 H        -2.891858         1.034470        -0.091706
 H        -0.621532         1.578487        -1.007211
 H        -0.543639         1.923782         0.757033
 H         0.485644        -2.546763         1.059162
 H        -0.711544        -3.313569         0.402115
 H         0.511495        -2.804735        -0.776117
