19
Iteration:  1734charge 0 multiplicity 1
 C        -2.835595        -1.546922         1.636587
 C        -1.739885        -0.636610         1.280036
 C        -1.916288         0.282067         0.128298
 C        -0.735641         1.249195        -0.198314
 C         0.325558         0.079318         0.031923
 O         1.523193         0.124976         0.129718
 C        -0.652238        -1.231289         0.048852
 C        -0.341836        -2.679086        -0.001832
 O        -1.669817        -0.814207        -0.929876
 H        -2.675063        -2.141484         2.548051
 H        -3.827280        -1.107371         1.762909
 H        -2.953259        -2.299615         0.868301
 H        -1.468574        -0.092555         2.170016
 H        -2.997637         0.742051        -0.009043
 H        -0.626555         1.584651        -1.260454
 H        -0.468521         2.172862         0.405323
 H        -0.088899        -3.077223         0.976464
 H        -1.143553        -3.237992        -0.510998
 H         0.580408        -2.751160        -0.527241
