19
Iteration:  4416charge 0 multiplicity 1
 C        -2.888494        -1.614122         1.537237
 C        -1.720357        -0.574458         1.202586
 C        -2.008414         0.407274        -0.109652
 C        -0.685064         1.231348         0.045200
 C         0.282693        -0.046809        -0.036498
 O         1.477587        -0.075236         0.048697
 C        -0.746301        -1.162466         0.194070
 C        -0.119752        -2.533531         0.123518
 O        -1.684805        -0.774645        -0.923657
 H        -3.251472        -2.001577         0.630341
 H        -2.720293        -2.291273         2.308594
 H        -3.612046        -0.980547         1.865115
 H        -1.262540        -0.132068         2.105680
 H        -3.049849         0.646570        -0.208878
 H        -0.508200         1.898548        -0.732394
 H        -0.463565         1.466007         1.040475
 H         0.492172        -2.639860         0.985430
 H        -0.941938        -3.220151        -0.041269
 H         0.488657        -2.674166        -0.710770
