19
Iteration:  1680charge 0 multiplicity 1
 C        -2.795252        -1.558745         1.604554
 C        -1.656853        -0.602422         1.215049
 C        -2.017189         0.360276        -0.039179
 C        -0.804821         1.304117        -0.066283
 C         0.256131        -0.027046         0.011695
 O         1.497522        -0.194406         0.130655
 C        -0.795507        -1.177846         0.086248
 C        -0.066060        -2.449385         0.116497
 O        -1.696621        -0.808604        -0.947452
 H        -2.438941        -2.604162         1.709371
 H        -3.356339        -1.268470         2.507926
 H        -3.572770        -1.639418         0.820688
 H        -1.189874         0.046196         1.936505
 H        -3.031033         0.768556        -0.424131
 H        -0.819777         1.911441        -1.006025
 H        -0.678852         1.961831         0.846031
 H         0.599264        -2.566235         1.001946
 H        -0.826185        -3.277697         0.146357
 H         0.283410        -2.518552        -0.887360
