19
Iteration:  1535
 C        -2.845372        -1.594332         1.573442
 C        -1.694197        -0.610764         1.201843
 C        -1.979192         0.361536         0.016452
 C        -0.720719         1.268497        -0.021972
 C         0.203791         0.017331        -0.006541
 O         1.423047        -0.142359         0.031403
 C        -0.779841        -1.166274         0.177717
 C        -0.080779        -2.499317         0.079180
 O        -1.640086        -0.778415        -0.933734
 H        -2.468192        -2.281729         2.302555
 H        -3.652579        -1.144542         2.137110
 H        -3.264162        -2.137087         0.740290
 H        -1.394990        -0.046584         2.041310
 H        -3.010149         0.830844        -0.195774
 H        -0.559298         1.563441        -1.022804
 H        -0.456330         2.030747         0.774548
 H         0.503028        -2.599297         0.957177
 H        -0.741522        -3.329520         0.017491
 H         0.497542        -2.516935        -0.833679
