19
Iteration:   316charge 0 multiplicity 1
 C        -2.904424        -1.591623         1.518794
 C        -1.719517        -0.686772         1.191129
 C        -1.959362         0.336026        -0.023637
 C        -0.672539         1.188422        -0.271461
 C         0.239825         0.069048         0.035632
 O         1.428419         0.171589         0.215909
 C        -0.585143        -1.190964         0.262332
 C        -0.174852        -2.628411         0.088561
 O        -1.698672        -0.827560        -0.858899
 H        -2.623135        -2.577583         1.933480
 H        -3.530570        -1.119123         2.324611
 H        -3.608714        -1.835806         0.715514
 H        -1.289685        -0.210708         2.086334
 H        -2.881201         0.731613        -0.250900
 H        -0.537388         1.430202        -1.436235
 H        -0.410333         2.131355         0.150191
 H         0.612195        -3.017050         0.707338
 H        -1.024067        -3.338088         0.122213
 H         0.157462        -2.680973        -0.944012
