19
Iteration:  4886
 C        -3.004277        -1.583595         1.534523
 C        -1.755342        -0.542728         1.264701
 C        -2.005804         0.345437         0.005052
 C        -0.672391         1.148754        -0.096820
 C         0.310632        -0.066589         0.010245
 O         1.518410         0.027864         0.107968
 C        -0.690759        -1.145786         0.242957
 C        -0.190780        -2.576921        -0.019510
 O        -1.618311        -0.805759        -0.853303
 H        -2.987843        -2.227053         0.650029
 H        -2.986881        -2.254427         2.457247
 H        -3.931009        -0.968514         1.453145
 H        -1.295742        -0.003019         2.131199
 H        -2.953060         0.890218        -0.181077
 H        -0.701837         1.732880        -0.994715
 H        -0.262140         1.966429         0.477669
 H         0.624471        -2.877634         0.550325
 H        -0.969875        -3.262010        -0.220859
 H         0.397398        -2.534879        -0.955724
