19
Iteration:  3844charge 0 multiplicity 1
 C        -2.955567        -1.485210         1.557181
 C        -1.703313        -0.673743         1.249804
 C        -1.980759         0.340533         0.032031
 C        -0.705582         1.213594        -0.158328
 C         0.279563         0.028773        -0.048592
 O         1.507846         0.073556         0.196295
 C        -0.614215        -1.240001         0.148749
 C        -0.155885        -2.574136         0.000730
 O        -1.710278        -0.833979        -0.884609
 H        -3.504331        -1.428603         0.627370
 H        -2.780033        -2.556478         1.771209
 H        -3.441991        -1.151167         2.535713
 H        -1.194905        -0.234017         2.107295
 H        -3.024224         0.701881        -0.034848
 H        -0.569777         1.663392        -1.139787
 H        -0.522969         1.920477         0.638292
 H         0.242968        -3.111255         0.894082
 H        -1.070623        -3.236542        -0.106470
 H         0.365853        -2.755265        -0.929250
