19
Iteration:  3190
 C        -2.856293        -1.595163         1.340606
 C        -1.750796        -0.604875         1.254721
 C        -1.995010         0.410645        -0.001914
 C        -0.673639         1.188668        -0.096015
 C         0.260698        -0.000690         0.085190
 O         1.515435         0.090074        -0.001529
 C        -0.668533        -1.174889         0.187548
 C        -0.258267        -2.596351         0.219148
 O        -1.638169        -0.846262        -0.820635
 H        -3.306801        -1.771801         0.328914
 H        -2.700585        -2.592859         1.740777
 H        -3.712235        -1.189001         1.961381
 H        -1.218383        -0.388084         2.242996
 H        -2.957137         0.813148        -0.408795
 H        -0.602177         1.568621        -1.097588
 H        -0.461246         1.888389         0.644187
 H         0.893207        -2.581264         0.455218
 H        -0.869377        -3.159940         0.942784
 H        -0.566306        -3.050957        -0.796708
