19
Iteration:  2577charge 0 multiplicity 1
 C        -2.856818        -1.589227         1.600285
 C        -1.793479        -0.641007         1.126290
 C        -1.938859         0.335095        -0.089951
 C        -0.684408         1.275640        -0.081838
 C         0.296690         0.029848         0.091972
 O         1.475911        -0.028668         0.168290
 C        -0.732306        -1.189140         0.138921
 C        -0.130602        -2.621782         0.067955
 O        -1.730499        -0.741381        -0.971118
 H        -2.959830        -2.592768         1.117850
 H        -2.553184        -1.867815         2.651957
 H        -3.886753        -1.232806         1.805814
 H        -1.339173         0.006424         1.903233
 H        -2.982251         0.779507        -0.171246
 H        -0.434164         1.852684        -0.929163
 H        -0.496606         1.953489         0.780346
 H         0.612524        -2.698137         0.830390
 H        -1.023983        -3.294009         0.174687
 H         0.439236        -2.817641        -0.841222
