19
Iteration:  2098charge 0 multiplicity 1
 C        -2.880888        -1.543697         1.517936
 C        -1.686851        -0.691181         1.196384
 C        -1.995854         0.397822         0.036554
 C        -0.661541         1.210570         0.059949
 C         0.208978         0.025775         0.065763
 O         1.452237        -0.073376        -0.097811
 C        -0.737385        -1.237517         0.214681
 C        -0.073921        -2.535893         0.016405
 O        -1.737684        -0.736425        -0.887595
 H        -3.804505        -1.001954         1.424178
 H        -2.884465        -2.441540         0.862629
 H        -2.779268        -1.839813         2.557029
 H        -1.262798        -0.347702         2.160890
 H        -3.057423         0.771430        -0.036217
 H        -0.311368         1.937277        -0.700458
 H        -0.528179         1.825738         0.993866
 H         0.762412        -2.543196         0.672118
 H        -0.702417        -3.324044         0.288444
 H         0.286868        -2.631474        -1.028823
