19
Iteration:  2111
 C        -2.970805        -1.533273         1.480399
 C        -1.681594        -0.657749         1.251412
 C        -1.920741         0.286392         0.170752
 C        -0.746054         1.236226         0.039891
 C         0.306812         0.002392         0.064582
 O         1.477579        -0.010875        -0.114419
 C        -0.662700        -1.153355         0.126020
 C        -0.130176        -2.600995         0.074599
 O        -1.714661        -0.739118        -0.916344
 H        -3.854903        -0.836127         1.433955
 H        -3.236547        -2.350156         0.722007
 H        -2.923773        -2.072664         2.446961
 H        -1.187163        -0.261912         2.112647
 H        -2.790071         0.809407         0.087114
 H        -0.888345         1.735069        -0.872054
 H        -0.594864         1.867525         0.958423
 H         0.883482        -2.711165         0.457475
 H        -0.765633        -3.444636         0.415686
 H         0.044339        -2.728941        -1.040005
