19
Iteration:  4848charge 0 multiplicity 1
 C        -2.808542        -1.564636         1.627732
 C        -1.654702        -0.644082         1.132696
 C        -2.017497         0.375362         0.028708
 C        -0.706887         1.241923        -0.116765
 C         0.300089         0.007841         0.017128
 O         1.492276         0.004916         0.298353
 C        -0.688759        -1.203616        -0.016319
 C        -0.241999        -2.616599         0.074656
 O        -1.717452        -0.757418        -0.988157
 H        -3.348906        -1.913058         0.756171
 H        -2.670207        -2.373293         2.318979
 H        -3.473545        -0.802982         1.978848
 H        -1.121037        -0.217470         1.974776
 H        -3.022944         0.733266        -0.177158
 H        -0.516019         1.378026        -1.221357
 H        -0.690838         2.032073         0.677942
 H         0.088518        -2.801629         1.174775
 H        -1.152502        -3.335918        -0.030553
 H         0.560395        -2.850078        -0.663151
