19
Iteration:   311
 C        -2.945885        -1.606846         1.500968
 C        -1.710938        -0.712658         1.245261
 C        -1.991752         0.307229         0.037499
 C        -0.643076         1.168616        -0.338237
 C         0.266992         0.052615         0.018759
 O         1.443469         0.208371         0.201960
 C        -0.599350        -1.173831         0.209330
 C        -0.170622        -2.610561         0.115772
 O        -1.673542        -0.814304        -0.853984
 H        -2.741216        -2.600046         1.939738
 H        -3.607645        -1.089431         2.187281
 H        -3.556176        -1.845943         0.599140
 H        -1.239059        -0.286637         2.182269
 H        -2.999437         0.961753        -0.150693
 H        -0.545322         1.312338        -1.371758
 H        -0.415123         2.159992         0.305123
 H         0.569508        -3.062710         0.833541
 H        -1.049307        -3.269997         0.167966
 H         0.032421        -2.711775        -0.997725
