19
Iteration:   456
 C        -2.950766        -1.547613         1.494321
 C        -1.765597        -0.658126         1.177944
 C        -2.026680         0.355705         0.085186
 C        -0.711700         1.089412        -0.152899
 C         0.287935        -0.049850         0.038055
 O         1.489541         0.144253         0.063967
 C        -0.661384        -1.199903         0.222004
 C        -0.122977        -2.538765         0.161792
 O        -1.585343        -0.779116        -0.948298
 H        -2.828760        -2.458549         2.144490
 H        -3.731969        -0.956089         2.068909
 H        -3.430454        -1.942640         0.573940
 H        -1.369416        -0.217067         2.123957
 H        -3.121041         0.676388        -0.153035
 H        -0.709118         1.418139        -1.191172
 H        -0.526520         1.947517         0.490102
 H         0.729462        -2.623344         0.845382
 H        -0.888027        -3.302701         0.529137
 H         0.058487        -2.828217        -0.874043
