19
Iteration:  4179charge 0 multiplicity 1
 C        -2.885062        -1.525223         1.634925
 C        -1.752532        -0.550314         1.216000
 C        -1.971151         0.368739        -0.035623
 C        -0.652503         1.204738        -0.121486
 C         0.255539        -0.002302         0.013487
 O         1.465521        -0.069627         0.207350
 C        -0.803831        -1.233424         0.125974
 C        -0.070414        -2.536192        -0.043982
 O        -1.692032        -0.783737        -0.910949
 H        -3.437542        -1.937605         0.863146
 H        -2.418905        -2.423219         1.889977
 H        -3.488467        -1.155053         2.395808
 H        -1.403106        -0.126587         2.154423
 H        -2.888989         0.818197        -0.352477
 H        -0.569580         1.740900        -1.106977
 H        -0.631975         1.713693         0.813238
 H         0.843250        -2.645111         0.545786
 H        -0.777641        -3.301120         0.365051
 H         0.181796        -2.781197        -1.053725
