19
Iteration:   887
 C        -2.899225        -1.641979         1.613792
 C        -1.817275        -0.694434         1.147002
 C        -2.027043         0.417086         0.067082
 C        -0.655906         1.131522        -0.083180
 C         0.257926        -0.003589         0.104986
 O         1.493196        -0.006607         0.032102
 C        -0.757316        -1.237836         0.152561
 C        -0.018732        -2.489050         0.159818
 O        -1.705648        -0.692319        -1.083844
 H        -2.332928        -2.352762         2.233633
 H        -3.480476        -1.052758         2.317029
 H        -3.636825        -1.951517         0.920979
 H        -1.419896        -0.314671         2.095501
 H        -2.971823         0.929808        -0.318026
 H        -0.518477         1.493813        -1.189909
 H        -0.387469         1.929422         0.682360
 H         0.041320        -2.538856         1.272379
 H        -0.665008        -3.341759        -0.183123
 H         1.005492        -2.438153        -0.232299
