19
Iteration:  4694charge 0 multiplicity 1
 C        -2.958654        -1.658099         1.531370
 C        -1.883753        -0.649427         1.152371
 C        -1.926932         0.395201        -0.035631
 C        -0.669560         1.186748        -0.017194
 C         0.271745         0.028987         0.131296
 O         1.494928        -0.074719        -0.075358
 C        -0.742776        -1.186615         0.245464
 C        -0.175165        -2.571780         0.137641
 O        -1.543155        -0.653910        -0.887319
 H        -2.969315        -2.337112         0.748097
 H        -2.572980        -2.062829         2.385621
 H        -3.943860        -1.323980         1.734994
 H        -1.559095        -0.236260         2.101943
 H        -2.789291         0.953418        -0.237526
 H        -0.432783         1.675242        -1.034537
 H        -0.681548         2.149150         0.573104
 H         0.765283        -2.706496         0.773161
 H        -0.861924        -3.345344         0.300261
 H         0.068854        -2.685938        -0.960829
