19
Iteration:  4810charge 0 multiplicity 1
 C        -2.704865        -1.572741         1.630618
 C        -1.733192        -0.596577         1.175208
 C        -1.993359         0.409453        -0.157138
 C        -0.684633         1.225102        -0.107358
 C         0.232982        -0.035473         0.092049
 O         1.436209        -0.033454         0.299570
 C        -0.760177        -1.147788         0.068654
 C        -0.238036        -2.605415         0.044880
 O        -1.664514        -0.798848        -0.985519
 H        -3.606646        -1.752069         0.949999
 H        -2.209897        -2.614864         1.936016
 H        -3.075414        -1.269876         2.694438
 H        -1.416544         0.092300         2.096451
 H        -2.947510         0.953339        -0.381858
 H        -0.393246         1.643516        -1.061120
 H        -0.540862         2.092612         0.495996
 H         0.285180        -2.896145         0.956385
 H        -1.030756        -3.348042        -0.064774
 H         0.388781        -2.742812        -0.882424
