19
Iteration:  3500
 C        -2.872306        -1.632431         1.483853
 C        -1.730172        -0.505860         1.185523
 C        -2.019546         0.364580        -0.066082
 C        -0.709070         1.212861        -0.041419
 C         0.265166         0.011304         0.065209
 O         1.458648        -0.074188         0.018381
 C        -0.727954        -1.190912         0.173335
 C        -0.200202        -2.547316         0.219726
 O        -1.585022        -0.730022        -0.949790
 H        -3.517016        -1.862730         0.590911
 H        -2.379048        -2.630203         1.628240
 H        -3.445618        -1.354944         2.388059
 H        -1.373600        -0.193630         2.165105
 H        -3.092624         0.666078        -0.207571
 H        -0.438925         1.844057        -0.807172
 H        -0.391676         1.629555         0.875285
 H         0.889515        -2.465467         0.487508
 H        -0.787941        -3.222191         1.007087
 H        -0.283792        -3.123443        -0.747944
