19
Iteration:   649charge 0 multiplicity 1
 C        -2.830521        -1.557906         1.832837
 C        -1.763052        -0.611804         1.122343
 C        -1.980122         0.369220        -0.191762
 C        -0.792093         1.263141        -0.159943
 C         0.251729        -0.013700         0.107633
 O         1.430292         0.040792         0.289767
 C        -0.741807        -1.162095         0.087045
 C        -0.084803        -2.690255         0.063255
 O        -1.618858        -0.807950        -1.056644
 H        -2.409944        -2.582671         2.138150
 H        -3.167375        -1.005215         2.752921
 H        -3.680271        -1.768816         1.134926
 H        -1.240382         0.063797         1.848036
 H        -3.019775         0.808084        -0.519778
 H        -0.444609         1.509742        -1.099893
 H        -0.764513         2.236587         0.522430
 H         0.640712        -2.816516         0.874427
 H        -0.829358        -3.535780        -0.073424
 H         0.445515        -2.832502        -0.918412
