19
Iteration:   807charge 0 multiplicity 1
 C        -3.103115        -1.666442         1.599098
 C        -1.833206        -0.639707         1.174322
 C        -1.947746         0.338037         0.056171
 C        -0.701465         1.229090        -0.104524
 C         0.360554         0.102724         0.024335
 O         1.566016         0.129681        -0.085210
 C        -0.691500        -1.204874         0.208902
 C        -0.199323        -2.641559         0.168385
 O        -1.523912        -0.796794        -0.927448
 H        -2.776817        -2.235045         2.435100
 H        -3.786954        -0.980517         2.040999
 H        -3.513568        -2.362091         0.883212
 H        -1.336177        -0.350741         2.051065
 H        -2.873317         0.724732        -0.204525
 H        -0.822609         1.863306        -1.041428
 H        -0.679997         1.807452         0.779063
 H         0.032631        -3.019494         1.166452
 H        -0.971835        -3.287354        -0.219442
 H         0.684032        -2.726231        -0.490859
