19
Iteration:   848charge 0 multiplicity 1
 C        -2.816951        -1.536123         1.359589
 C        -1.667244        -0.648030         1.224859
 C        -1.954834         0.387883         0.067636
 C        -0.753637         1.208151        -0.162151
 C         0.203853         0.038289         0.024944
 O         1.422201        -0.002417         0.000802
 C        -0.677765        -1.158480         0.228792
 C        -0.207871        -2.527309         0.191458
 O        -1.629056        -0.901219        -0.839544
 H        -2.469343        -2.568667         1.547299
 H        -3.571675        -1.330210         2.183933
 H        -3.358603        -1.683285         0.360024
 H        -1.440007        -0.143035         2.208733
 H        -2.896215         0.893217         0.207614
 H        -0.535430         1.808564        -0.966001
 H        -0.625906         1.926258         0.704337
 H        -0.118357        -2.919005         1.227892
 H        -0.779922        -3.203562        -0.392941
 H         0.826686        -2.536465        -0.159236
