19
Iteration:  2976
 C        -3.028028        -1.516527         1.727208
 C        -1.782947        -0.690071         1.142143
 C        -1.948356         0.294062        -0.083239
 C        -0.723206         1.190046        -0.038390
 C         0.263648        -0.006930         0.132884
 O         1.431967        -0.067554         0.063477
 C        -0.676802        -1.159224         0.197447
 C        -0.110624        -2.504799         0.105969
 O        -1.527246        -0.744485        -1.072393
 H        -3.548242        -2.109800         0.942475
 H        -2.589692        -2.132471         2.549980
 H        -3.767376        -0.749260         2.083018
 H        -1.476074        -0.087478         2.035930
 H        -2.859007         0.886267        -0.453071
 H        -0.623340         1.413547        -1.166333
 H        -0.634015         2.060645         0.638101
 H         0.706035        -2.571063         0.804413
 H        -0.678016        -3.418409         0.136081
 H         0.301169        -2.621488        -0.913544
