19
Iteration:    46
 C        -2.935499        -1.558538         1.552956
 C        -1.709236        -0.700877         1.275993
 C        -2.023084         0.275998         0.033392
 C        -0.722660         1.139621        -0.283558
 C         0.275690         0.065080        -0.002456
 O         1.497435         0.152309         0.270364
 C        -0.627224        -1.183119         0.146074
 C        -0.198133        -2.581402         0.026372
 O        -1.615864        -0.786349        -0.931192
 H        -2.642981        -2.412779         2.153761
 H        -3.598533        -1.048186         2.266804
 H        -3.521523        -1.941366         0.712329
 H        -1.279691        -0.342349         2.229323
 H        -3.034044         0.642889        -0.196914
 H        -0.789811         1.428332        -1.256319
 H        -0.488824         2.036840         0.353940
 H         0.807066        -2.609237         0.411609
 H        -0.824239        -3.258728         0.631432
 H        -0.216960        -2.865399        -0.987790
