19
Iteration:  2882
 C        -2.986473        -1.672260         1.493613
 C        -1.790896        -0.654397         1.193459
 C        -2.012863         0.394786        -0.035960
 C        -0.566646         1.166658        -0.162900
 C         0.284414         0.009555         0.035277
 O         1.446820        -0.043294         0.080554
 C        -0.680307        -1.159990         0.180765
 C        -0.159369        -2.505693         0.238084
 O        -1.639998        -0.695551        -0.898827
 H        -3.457546        -2.015252         0.563972
 H        -2.339674        -2.467581         1.885090
 H        -3.699764        -1.391016         2.231898
 H        -1.274736        -0.327718         2.110722
 H        -2.879763         0.923042        -0.335111
 H        -0.744023         1.657182        -1.101931
 H        -0.426788         2.092089         0.557482
 H         0.863991        -2.415272         0.668862
 H        -0.791014        -3.320466         0.724150
 H         0.012572        -2.893889        -0.794332
