19
Iteration:  3314charge 0 multiplicity 1
 C        -2.887376        -1.511960         1.486277
 C        -1.690020        -0.673180         1.224534
 C        -1.926748         0.349905         0.031857
 C        -0.669598         1.161569        -0.282238
 C         0.305907         0.030182         0.109729
 O         1.486057         0.121692         0.217483
 C        -0.732224        -1.213677         0.114179
 C        -0.213217        -2.650926         0.044349
 O        -1.733062        -0.781049        -0.860294
 H        -3.547434        -1.855590         0.715142
 H        -2.522398        -2.428366         1.993473
 H        -3.441765        -1.093755         2.304044
 H        -1.170627        -0.302042         2.178414
 H        -2.871659         0.938602        -0.245397
 H        -0.722735         1.360674        -1.350401
 H        -0.561551         1.999730         0.400460
 H         0.192971        -2.878849         1.058572
 H        -1.066433        -3.418118        -0.141700
 H         0.651225        -2.709249        -0.641082
