19
Iteration:  4166
 C        -2.839102        -1.480391         1.571490
 C        -1.750296        -0.560438         1.174636
 C        -2.080954         0.359706        -0.031339
 C        -0.692852         1.187929        -0.049013
 C         0.256780         0.000181         0.114235
 O         1.510956        -0.136920         0.172227
 C        -0.675046        -1.121312         0.105615
 C        -0.062667        -2.536293        -0.000823
 O        -1.785565        -0.882201        -0.932816
 H        -3.500818        -1.509892         0.754599
 H        -2.459690        -2.373254         2.012414
 H        -3.429729        -1.095191         2.381798
 H        -1.248859        -0.073761         1.925926
 H        -3.043127         0.854006        -0.164825
 H        -0.441421         1.767036        -0.914410
 H        -0.522439         1.980049         0.632073
 H         0.822985        -2.563408         0.629695
 H        -0.709846        -3.407489         0.047426
 H         0.278444        -2.514041        -1.023904
