19
Iteration:  3016
 C        -2.816395        -1.502571         1.527687
 C        -1.745088        -0.517572         1.154838
 C        -1.957503         0.329613        -0.086432
 C        -0.713652         1.143374        -0.072732
 C         0.280248         0.035806         0.013856
 O         1.491981        -0.003536         0.217832
 C        -0.687950        -1.184518         0.125243
 C        -0.117443        -2.613199         0.147638
 O        -1.794893        -0.844282        -0.954814
 H        -3.484846        -1.750670         0.728591
 H        -2.460782        -2.434853         1.886248
 H        -3.522047        -1.159129         2.291523
 H        -1.183938        -0.113195         1.986145
 H        -2.908340         0.890123        -0.216413
 H        -0.569698         1.476858        -1.115851
 H        -0.724364         2.009883         0.756599
 H         0.205205        -2.890479         1.154599
 H        -0.956930        -3.151318        -0.168736
 H         0.771482        -2.644219        -0.506458
