19
Iteration:  1356charge 0 multiplicity 1
 C        -2.877041        -1.457358         1.500249
 C        -1.703029        -0.616107         1.245402
 C        -1.976887         0.259594        -0.063437
 C        -0.755454         1.082625        -0.048658
 C         0.320729         0.081177         0.030645
 O         1.517687         0.175232         0.086752
 C        -0.624360        -1.237885         0.211085
 C        -0.272839        -2.665981        -0.049705
 O        -1.654564        -0.850206        -0.797364
 H        -2.560269        -2.412628         1.970537
 H        -3.597194        -0.818564         2.048727
 H        -3.500875        -1.644952         0.595272
 H        -1.341322        -0.185635         2.196720
 H        -2.867577         0.813587        -0.085239
 H        -0.821767         1.845947        -0.967424
 H        -0.636299         1.855342         0.775320
 H         0.747434        -2.804770         0.337649
 H        -1.022959        -3.310986         0.409135
 H        -0.306768        -2.930084        -1.087518
