19
Iteration:   933
 C        -2.859866        -1.487932         1.613577
 C        -1.742318        -0.589273         1.148480
 C        -2.083725         0.247325        -0.063993
 C        -0.828811         1.213312        -0.025538
 C         0.364331         0.041774         0.095244
 O         1.581965         0.068313         0.131257
 C        -0.649616        -1.196489         0.132743
 C        -0.222669        -2.627884         0.002564
 O        -1.602610        -0.865309        -0.911306
 H        -2.604521        -2.008716         2.536717
 H        -3.753230        -0.840644         1.767725
 H        -3.201278        -2.063426         0.728748
 H        -1.375381         0.021821         2.007684
 H        -3.156993         0.654293        -0.134427
 H        -0.796604         1.797288        -0.898954
 H        -0.759188         1.849363         0.984523
 H         0.645284        -3.139970         0.515537
 H        -1.128048        -3.222433        -0.041779
 H        -0.028336        -2.547646        -1.093848
