19
Iteration:  2867
 C        -2.866005        -1.622448         1.507767
 C        -1.841490        -0.568107         1.174381
 C        -1.932179         0.374026        -0.048238
 C        -0.726387         1.206297        -0.076248
 C         0.281383        -0.018870         0.090262
 O         1.503588        -0.103525         0.089246
 C        -0.782080        -1.146287         0.175571
 C        -0.093333        -2.481435         0.140859
 O        -1.653214        -0.798673        -0.944545
 H        -3.631742        -1.755720         0.713322
 H        -2.558938        -2.627155         1.887033
 H        -3.472591        -1.150354         2.349380
 H        -1.547096         0.019158         2.097650
 H        -2.930364         0.859431        -0.321717
 H        -0.346420         1.629982        -1.065872
 H        -0.578668         1.923812         0.640224
 H         0.767457        -2.358615         0.865859
 H        -0.749015        -3.299954         0.618336
 H         0.190684        -2.766907        -0.948014
