19
Iteration:   908charge 0 multiplicity 1
 C        -2.904719        -1.537554         1.692060
 C        -1.716981        -0.635337         1.161179
 C        -1.958131         0.305014        -0.075726
 C        -0.749134         1.225372        -0.004613
 C         0.189063         0.031022         0.055946
 O         1.406722        -0.036934         0.080926
 C        -0.701417        -1.243581         0.085289
 C        -0.114834        -2.559300         0.075447
 O        -1.557076        -0.745244        -0.968074
 H        -2.450147        -2.234144         2.405713
 H        -3.746812        -1.041419         2.139755
 H        -3.290874        -2.007821         0.821689
 H        -1.308020        -0.052882         1.962007
 H        -2.973829         0.762519        -0.256429
 H        -0.515038         1.788691        -1.003328
 H        -0.810445         1.833661         0.901015
 H         0.403710        -2.722340         1.023121
 H        -0.843508        -3.363995        -0.228462
 H         0.642903        -2.516476        -0.723940
