19
Iteration:  2559charge 0 multiplicity 1
 C        -2.928760        -1.545322         1.692595
 C        -1.731565        -0.674116         1.199584
 C        -2.017999         0.312100         0.035386
 C        -0.733456         1.152186        -0.118036
 C         0.315360         0.017523         0.072216
 O         1.474793         0.059421         0.190355
 C        -0.679749        -1.130736         0.090869
 C        -0.243219        -2.572170        -0.017267
 O        -1.536158        -0.801803        -1.001161
 H        -3.226131        -2.221734         0.888400
 H        -2.839980        -1.990397         2.649498
 H        -3.726928        -0.801693         1.714268
 H        -1.174134        -0.245216         2.042787
 H        -2.965328         0.785288        -0.188638
 H        -0.683244         1.456445        -1.193987
 H        -0.571429         2.000781         0.517177
 H         0.331019        -2.979694         0.894443
 H        -1.116200        -3.222023        -0.208766
 H         0.421274        -2.655811        -0.877888
