19
Iteration:  4922
 C        -3.006984        -1.522168         1.479802
 C        -1.712594        -0.643254         1.183538
 C        -1.987123         0.367805         0.000711
 C        -0.681367         1.237102         0.071562
 C         0.267742         0.005418         0.145105
 O         1.460388        -0.055269        -0.086373
 C        -0.690909        -1.216862         0.218061
 C        -0.090243        -2.580459         0.138609
 O        -1.620466        -0.763227        -0.965997
 H        -3.241528        -2.050728         0.510612
 H        -2.916771        -2.287285         2.343653
 H        -3.948063        -0.867498         1.713231
 H        -1.355485        -0.103562         2.131489
 H        -2.947561         0.807833        -0.236337
 H        -0.623728         1.534764        -0.944935
 H        -0.536918         1.884953         0.885247
 H         0.841509        -2.626245         0.717981
 H        -0.627618        -3.361938         0.544832
 H        -0.033062        -2.646169        -0.954875
