19
Iteration:   286
 C        -2.919814        -1.542094         1.341795
 C        -1.693086        -0.694165         1.222934
 C        -1.947301         0.273967         0.136888
 C        -0.789074         1.204492        -0.191850
 C         0.365679         0.077977        -0.020346
 O         1.561016         0.197468         0.134905
 C        -0.701231        -1.247784         0.155466
 C        -0.220718        -2.644507         0.189882
 O        -1.707785        -0.808062        -0.842405
 H        -2.787294        -2.287375         2.113826
 H        -3.801714        -0.960233         1.593860
 H        -3.152393        -2.089819         0.453523
 H        -1.269219        -0.295926         2.100851
 H        -2.956584         0.774613        -0.064897
 H        -0.994419         1.227487        -1.242925
 H        -0.618608         2.110027         0.348062
 H         0.580736        -2.555082         0.969509
 H        -0.792640        -3.498983         0.543416
 H         0.240134        -2.822783        -0.780933
