19
Iteration:    55
 C        -2.909559        -1.561959         1.625635
 C        -1.710324        -0.754493         1.135241
 C        -2.045313         0.316230         0.030614
 C        -0.756632         1.221040        -0.268479
 C         0.312075         0.019249         0.096542
 O         1.471096         0.125722         0.261801
 C        -0.746606        -1.185513         0.087714
 C        -0.172874        -2.596445         0.048819
 O        -1.554756        -0.765959        -0.930939
 H        -2.478411        -2.335221         2.246706
 H        -3.392632        -0.778989         2.205360
 H        -3.596243        -2.017064         0.915431
 H        -1.266449        -0.441261         2.057220
 H        -3.064225         0.659728        -0.133658
 H        -0.815008         1.518875        -1.322626
 H        -0.540225         2.075137         0.199595
 H         0.848914        -2.570693         0.502002
 H        -0.663944        -3.377970         0.678104
 H        -0.111657        -3.020206        -0.985195
