19
Iteration:  4472charge 0 multiplicity 1
 C        -2.996063        -1.528796         1.498343
 C        -1.795980        -0.619733         1.245325
 C        -1.919517         0.340488         0.040332
 C        -0.697154         1.132674        -0.163998
 C         0.304988         0.040519         0.026134
 O         1.510053         0.029185         0.169210
 C        -0.687790        -1.188984         0.188426
 C        -0.158216        -2.587176        -0.043713
 O        -1.647831        -0.799528        -0.852363
 H        -3.604182        -1.778404         0.667277
 H        -2.591388        -2.455166         1.837588
 H        -3.544281        -1.051308         2.239355
 H        -1.303422        -0.226055         2.170319
 H        -2.910224         0.825997        -0.118722
 H        -0.779385         1.761585        -1.089254
 H        -0.346457         2.009125         0.510793
 H         0.805364        -2.800571         0.396313
 H        -0.763962        -3.241153         0.640317
 H        -0.130257        -2.826088        -1.082795
