19
Iteration:  1463charge 0 multiplicity 1
 C        -2.843155        -1.621382         1.605296
 C        -1.710312        -0.630543         1.242186
 C        -2.001161         0.295011         0.037667
 C        -0.702289         1.179635        -0.127352
 C         0.311560         0.043635         0.057937
 O         1.486260         0.152501         0.033777
 C        -0.673162        -1.223817         0.130684
 C        -0.333246        -2.692577         0.090944
 O        -1.575151        -0.709081        -0.916918
 H        -2.768100        -2.571809         2.170230
 H        -3.475632        -1.056135         2.359803
 H        -3.509988        -1.717224         0.703965
 H        -1.220094        -0.190567         2.160938
 H        -2.913143         0.769957        -0.349707
 H        -0.812679         1.548947        -1.222124
 H        -0.561067         2.081378         0.524509
 H         0.029949        -3.118668         1.106174
 H        -1.141075        -3.327288        -0.346036
 H         0.451854        -2.745472        -0.699573
