19
Iteration:  3477
 C        -2.938065        -1.640869         1.428971
 C        -1.785809        -0.604486         1.218207
 C        -2.005435         0.351634         0.037186
 C        -0.670600         1.243641        -0.090790
 C         0.349000         0.032660         0.050120
 O         1.521899        -0.016917        -0.016840
 C        -0.696421        -1.193542         0.219391
 C        -0.177185        -2.566030         0.216551
 O        -1.637633        -0.746052        -0.908300
 H        -3.496080        -1.695354         0.473671
 H        -2.716673        -2.704302         1.739425
 H        -3.538209        -1.017233         2.146785
 H        -1.369458        -0.537173         2.206317
 H        -3.052110         0.822412        -0.156632
 H        -0.585323         1.525041        -1.086931
 H        -0.641334         2.029624         0.626265
 H         0.901164        -2.627827         0.479613
 H        -0.910941        -3.127077         0.956455
 H        -0.409642        -2.972538        -0.813853
