19
Iteration:  2751charge 0 multiplicity 1
 C        -2.740075        -1.612536         1.519098
 C        -1.724633        -0.521941         1.158819
 C        -2.074534         0.384677        -0.058668
 C        -0.729267         1.204356        -0.191007
 C         0.289380         0.005989         0.110233
 O         1.478276        -0.127666         0.205089
 C        -0.708711        -1.153576         0.123463
 C        -0.157812        -2.538945         0.166809
 O        -1.715373        -0.752367        -0.939786
 H        -2.900810        -2.342373         0.693615
 H        -2.411206        -2.169792         2.420317
 H        -3.777679        -1.255908         1.692000
 H        -1.275425        -0.015120         2.051145
 H        -3.103470         0.760539        -0.148016
 H        -0.451191         1.793297        -1.133580
 H        -0.474306         1.839602         0.760002
 H        -0.091387        -3.045455         1.090299
 H        -0.971215        -3.159912        -0.313821
 H         0.624821        -2.579135        -0.574201
