19
Iteration:   144
 C        -2.890189        -1.628405         1.446312
 C        -1.716928        -0.628234         1.225351
 C        -1.944139         0.356406         0.116745
 C        -0.773640         1.114396        -0.289522
 C         0.294004         0.025581         0.003594
 O         1.479203         0.151703         0.192766
 C        -0.735240        -1.218673         0.179311
 C        -0.178654        -2.557339         0.116496
 O        -1.611139        -0.781066        -0.879439
 H        -2.585027        -2.339600         2.189995
 H        -3.710186        -1.105791         1.955263
 H        -3.340906        -2.171339         0.627048
 H        -1.233834        -0.321429         2.149076
 H        -2.901585         0.894107        -0.037088
 H        -0.914452         1.302808        -1.335155
 H        -0.451640         1.997885         0.189639
 H         0.227956        -2.804455         1.111267
 H        -0.937984        -3.370484        -0.023969
 H         0.527804        -2.608982        -0.687661
