19
Iteration:  3773charge 0 multiplicity 1
 C        -2.989266        -1.667721         1.561976
 C        -1.769255        -0.679059         1.166732
 C        -1.980162         0.352253         0.014487
 C        -0.669387         1.301238         0.008078
 C         0.268792        -0.023775         0.036281
 O         1.483121        -0.092624        -0.028888
 C        -0.704885        -1.104438         0.135032
 C        -0.146153        -2.540559         0.168801
 O        -1.613951        -0.688126        -0.968651
 H        -2.781196        -2.517867         0.866123
 H        -2.672921        -2.011198         2.574099
 H        -3.965576        -1.267306         1.727756
 H        -1.181754        -0.130583         2.103692
 H        -2.969368         0.746810        -0.265136
 H        -0.722971         1.834512        -0.934112
 H        -0.454698         1.979390         0.878705
 H         0.671331        -2.609474         0.861729
 H        -0.806366        -3.303178         0.604661
 H         0.088636        -2.921221        -0.837208
