19
Iteration:   952charge 0 multiplicity 1
 C        -2.905370        -1.564000         1.573590
 C        -1.727352        -0.662853         1.280773
 C        -1.900237         0.292680        -0.057344
 C        -0.660052         1.149935        -0.129734
 C         0.291518         0.045021         0.103945
 O         1.482672         0.210690         0.154385
 C        -0.718723        -1.193582         0.171897
 C        -0.290280        -2.621757        -0.071956
 O        -1.640728        -0.834818        -0.907103
 H        -2.660327        -2.065651         2.517098
 H        -3.757201        -0.943404         1.820560
 H        -3.170971        -2.235214         0.771448
 H        -1.199375        -0.330500         2.155088
 H        -2.890082         0.852550        -0.176490
 H        -0.593553         1.554985        -1.211762
 H        -0.557991         1.946145         0.631773
 H         0.641249        -2.750428         0.502615
 H        -0.936344        -3.397606         0.397600
 H        -0.189255        -3.023321        -1.089662
