19
Iteration:   396charge 0 multiplicity 1
 C        -2.783902        -1.526047         1.742628
 C        -1.734860        -0.607888         1.193584
 C        -1.997447         0.258546        -0.050859
 C        -0.716284         1.056738        -0.197356
 C         0.240962         0.009191         0.050509
 O         1.425461         0.103753         0.320556
 C        -0.701557        -1.208959         0.057384
 C        -0.161035        -2.601450         0.024509
 O        -1.659121        -0.716558        -1.051054
 H        -2.467484        -1.944393         2.705571
 H        -3.677080        -0.913251         1.863843
 H        -3.001315        -2.302574         0.979960
 H        -1.283518        -0.014273         2.005708
 H        -3.045289         0.748259        -0.300155
 H        -0.743925         1.405863        -1.312310
 H        -0.670751         2.017796         0.391461
 H         0.505731        -2.683526         0.925935
 H        -0.977851        -3.282013         0.091329
 H         0.575975        -2.825797        -0.780787
