19
Iteration:   457
 C        -2.944818        -1.547944         1.503817
 C        -1.774423        -0.679206         1.178615
 C        -2.034692         0.362067         0.083533
 C        -0.716058         1.097193        -0.145265
 C         0.292288        -0.053504         0.037461
 O         1.491299         0.138122         0.058868
 C        -0.667188        -1.195010         0.213199
 C        -0.122330        -2.535166         0.174976
 O        -1.578804        -0.772508        -0.959892
 H        -2.888253        -2.477327         2.144431
 H        -3.727318        -0.958460         2.094151
 H        -3.474650        -1.952566         0.602320
 H        -1.361431        -0.243918         2.120493
 H        -3.062680         0.694296        -0.168912
 H        -0.690118         1.468139        -1.216496
 H        -0.523526         1.929614         0.463872
 H         0.750567        -2.587603         0.847307
 H        -0.858298        -3.300823         0.541585
 H         0.077919        -2.836542        -0.843630
