19
Iteration:   941charge 0 multiplicity 1
 C        -2.907614        -1.496601         1.592920
 C        -1.688386        -0.617893         1.147150
 C        -1.992268         0.265406        -0.003635
 C        -0.795626         1.171998        -0.052472
 C         0.357668         0.038996         0.069586
 O         1.565665         0.139721         0.147011
 C        -0.673080        -1.232062         0.174356
 C        -0.305808        -2.608721        -0.047353
 O        -1.624963        -0.863978        -0.891265
 H        -2.643330        -2.130217         2.449246
 H        -3.811218        -0.957455         1.819247
 H        -3.138583        -2.263888         0.873388
 H        -1.343176        -0.026784         1.970859
 H        -2.996051         0.605023        -0.398351
 H        -0.476974         1.767032        -0.993850
 H        -0.892308         1.956747         0.725923
 H         0.650401        -2.780432         0.481120
 H        -1.111277        -3.321187         0.252878
 H         0.008532        -2.553689        -1.108307
