19
Iteration:  4685
 C        -2.917716        -1.661065         1.472630
 C        -1.820875        -0.553996         1.176534
 C        -1.966774         0.355679         0.003361
 C        -0.669330         1.178764         0.011537
 C         0.319070        -0.017594         0.192159
 O         1.459813        -0.081473        -0.095984
 C        -0.747771        -1.173733         0.262569
 C        -0.204556        -2.528813         0.121026
 O        -1.546205        -0.682181        -0.967516
 H        -3.117956        -2.467806         0.704847
 H        -2.453942        -2.200625         2.330266
 H        -3.888533        -1.313301         1.896152
 H        -1.675766         0.116781         2.096888
 H        -2.892757         0.823040        -0.325339
 H        -0.544860         1.579805        -1.074256
 H        -0.613629         2.037336         0.798064
 H         0.585062        -2.658723         0.895571
 H        -0.879143        -3.331917         0.415599
 H         0.191440        -2.594965        -0.879167
