19
Iteration:  2184charge 0 multiplicity 1
 C        -2.789787        -1.638049         1.582241
 C        -1.741683        -0.629838         1.165855
 C        -1.963131         0.356200         0.018760
 C        -0.749037         1.224197        -0.010606
 C         0.304279        -0.008180        -0.031609
 O         1.467484        -0.126298         0.033271
 C        -0.722981        -1.152699         0.166932
 C        -0.180631        -2.497267         0.099944
 O        -1.676827        -0.689760        -0.942753
 H        -3.051731        -1.540595         2.591191
 H        -3.786833        -1.422614         1.205194
 H        -2.603127        -2.658990         1.342122
 H        -1.328906        -0.134794         2.127230
 H        -3.042491         0.868622        -0.121158
 H        -0.695670         1.940369        -0.870638
 H        -0.694522         1.656082         1.005494
 H         0.870036        -2.545991         0.320937
 H        -0.740832        -3.154528         0.729386
 H        -0.230317        -2.842949        -0.957164
