19
Iteration:  4490charge 0 multiplicity 1
 C        -2.854151        -1.519091         1.515081
 C        -1.710715        -0.536740         1.232554
 C        -1.980629         0.350642        -0.024421
 C        -0.692997         1.262113        -0.117985
 C         0.295619        -0.015506         0.049014
 O         1.492857         0.069660         0.209663
 C        -0.688014        -1.225455         0.177394
 C        -0.258548        -2.679469        -0.007814
 O        -1.672588        -0.856722        -0.873843
 H        -3.265635        -1.684018         0.480178
 H        -2.517049        -2.515802         1.891751
 H        -3.694252        -1.116258         2.162956
 H        -1.379986        -0.015730         2.090829
 H        -2.973578         0.714883        -0.245215
 H        -0.469103         1.608454        -1.081815
 H        -0.631864         1.881185         0.811762
 H         0.854474        -2.746333         0.138553
 H        -0.829885        -3.551212         0.351697
 H        -0.313876        -2.657861        -1.123626
