19
Iteration:  1406charge 0 multiplicity 1
 C        -2.874557        -1.665238         1.617454
 C        -1.793388        -0.535273         1.163011
 C        -1.982188         0.408336         0.071860
 C        -0.656364         1.203080        -0.100150
 C         0.248910        -0.090148         0.047373
 O         1.453916        -0.106472         0.091544
 C        -0.763037        -1.191170         0.042751
 C        -0.013051        -2.469410         0.120899
 O        -1.755026        -0.717422        -0.980300
 H        -2.398940        -2.036909         2.528483
 H        -3.855075        -1.205753         1.860670
 H        -3.071900        -2.564262         1.011918
 H        -1.249555        -0.208488         2.106531
 H        -3.022229         0.918735        -0.041091
 H        -0.653883         1.658800        -1.050613
 H        -0.437097         1.870335         0.744722
 H         0.910153        -2.330338         0.772349
 H        -0.645218        -3.327241         0.355645
 H         0.465250        -2.555141        -0.907553
