19
Iteration:   537
 C        -2.995747        -1.672470         1.436488
 C        -1.790663        -0.634764         1.212639
 C        -2.001438         0.405336         0.003395
 C        -0.722918         1.240511        -0.127885
 C         0.332960         0.157777         0.067904
 O         1.497180         0.025580        -0.091840
 C        -0.648316        -1.141381         0.289915
 C        -0.124000        -2.665857         0.234324
 O        -1.577362        -0.825434        -0.844781
 H        -2.916351        -2.434424         2.305432
 H        -3.925907        -1.103691         1.736136
 H        -3.455963        -2.256478         0.559244
 H        -1.474836        -0.210055         2.197861
 H        -2.941238         0.832786        -0.337806
 H        -0.724087         1.569296        -1.230010
 H        -0.549304         2.173444         0.458014
 H         0.417750        -3.068363         1.098562
 H        -1.067724        -3.169180         0.152871
 H         0.559873        -2.840466        -0.629556
