19
Iteration:  3102charge 0 multiplicity 1
 C        -2.889875        -1.485188         1.658257
 C        -1.799443        -0.529229         1.113329
 C        -1.980176         0.272991        -0.120366
 C        -0.699978         1.206306        -0.065462
 C         0.266903        -0.004048         0.107288
 O         1.477620        -0.012964         0.175322
 C        -0.689456        -1.160683         0.105338
 C        -0.140564        -2.576800         0.033910
 O        -1.675116        -0.852226        -0.981151
 H        -3.171165        -2.221873         0.910373
 H        -2.484978        -1.994115         2.531409
 H        -3.700319        -0.835925         2.035624
 H        -1.342226        -0.076702         2.017329
 H        -2.988585         0.670559        -0.243022
 H        -0.513408         1.916372        -0.784934
 H        -0.530022         1.617564         0.860029
 H         0.469181        -2.793545         0.990957
 H        -0.841249        -3.443873         0.042355
 H         0.678219        -2.716003        -0.735507
