19
Iteration:  4648
 C        -2.958579        -1.612653         1.407431
 C        -1.742844        -0.590932         1.184481
 C        -1.908558         0.329533         0.020454
 C        -0.707881         1.271176         0.009552
 C         0.299908         0.006153         0.026101
 O         1.495607        -0.004486        -0.010129
 C        -0.645424        -1.172497         0.151164
 C        -0.213893        -2.631117         0.206369
 O        -1.684054        -0.771604        -0.940390
 H        -3.644782        -1.731738         0.604736
 H        -2.597489        -2.428567         1.968786
 H        -3.456589        -1.104447         2.204960
 H        -1.345194        -0.270278         2.130620
 H        -2.920750         0.761858        -0.047680
 H        -0.737461         2.109695        -0.764680
 H        -0.412296         1.859919         0.999366
 H         0.260639        -2.632257         1.219827
 H        -0.995013        -3.411917         0.052812
 H         0.621604        -2.970240        -0.511997
