19
Iteration:  1333
 C        -2.879123        -1.556106         1.619052
 C        -1.735420        -0.657812         1.196196
 C        -1.932105         0.365000         0.027702
 C        -0.676185         1.191829        -0.070675
 C         0.332745         0.025226         0.089470
 O         1.488875         0.210791         0.065660
 C        -0.723313        -1.273897         0.111664
 C        -0.273013        -2.655236         0.062586
 O        -1.640573        -0.872931        -0.943958
 H        -2.517617        -2.591950         1.772865
 H        -3.622147        -1.110762         2.304421
 H        -3.571083        -1.595073         0.729261
 H        -1.449706        -0.017423         2.022412
 H        -2.898011         0.785807        -0.002433
 H        -0.436131         1.776407        -1.091617
 H        -0.621127         1.991028         0.758404
 H         0.734691        -2.840224         0.519367
 H        -1.113845        -3.256566         0.340288
 H        -0.206765        -2.853562        -1.005385
