19
Iteration:  4462charge 0 multiplicity 1
 C        -3.003474        -1.523209         1.537185
 C        -1.756538        -0.720833         1.200641
 C        -1.999588         0.333817         0.069316
 C        -0.667502         1.170389        -0.194389
 C         0.302366         0.011930         0.081676
 O         1.518617         0.006388         0.130496
 C        -0.655590        -1.159261         0.124044
 C        -0.144527        -2.546136         0.060244
 O        -1.659262        -0.734112        -0.869401
 H        -3.552850        -1.598120         0.621514
 H        -2.799346        -2.502803         1.959145
 H        -3.642512        -1.064831         2.255214
 H        -1.409150        -0.368722         2.230628
 H        -3.002218         0.791734        -0.159304
 H        -0.465302         1.329928        -1.288283
 H        -0.508707         1.813580         0.659026
 H         0.866182        -2.432786         0.362292
 H        -0.814599        -3.366857         0.368354
 H        -0.090624        -2.794012        -0.999471
