19
Iteration:  2704
 C        -2.968663        -1.534349         1.596497
 C        -1.804133        -0.647301         1.167594
 C        -1.962674         0.362602        -0.076057
 C        -0.735534         1.184713         0.002863
 C         0.261345        -0.060628         0.040087
 O         1.484271         0.018619         0.079224
 C        -0.654675        -1.204647         0.175523
 C        -0.100069        -2.550841         0.164722
 O        -1.590649        -0.767302        -1.023983
 H        -3.720570        -1.457143         0.814873
 H        -2.692352        -2.574334         1.838875
 H        -3.428034        -1.040375         2.448223
 H        -1.225285        -0.191004         1.991927
 H        -2.957037         0.781658        -0.339475
 H        -0.626403         1.642002        -1.058843
 H        -0.837572         1.975850         0.780346
 H         0.439652        -2.756635         1.098036
 H        -0.874912        -3.357003         0.233128
 H         0.430709        -2.678870        -0.824387
