19
Iteration:  2837
 C        -2.906231        -1.436248         1.594227
 C        -1.744685        -0.614131         1.179477
 C        -1.936552         0.289471        -0.119160
 C        -0.781896         1.181654        -0.021526
 C         0.220183         0.010573         0.030076
 O         1.438566        -0.044218         0.163249
 C        -0.690188        -1.210874         0.137528
 C        -0.078033        -2.571543         0.048164
 O        -1.607127        -0.816257        -0.928190
 H        -3.653505        -1.528317         0.793431
 H        -2.619896        -2.382772         2.082500
 H        -3.385340        -0.790815         2.321082
 H        -1.326189         0.016623         1.989002
 H        -2.919305         0.693250        -0.378276
 H        -0.531421         1.891743        -0.858503
 H        -0.716742         1.881261         0.846770
 H         0.469732        -2.805238         0.994895
 H        -0.918988        -3.364556        -0.111074
 H         0.536849        -2.676416        -0.900786
