19
Iteration:  3318charge 0 multiplicity 1
 C        -2.848219        -1.530061         1.491309
 C        -1.657257        -0.634794         1.234374
 C        -1.964196         0.365875         0.026621
 C        -0.676542         1.124457        -0.260257
 C         0.268547         0.067631         0.087699
 O         1.520075         0.115273         0.234620
 C        -0.761966        -1.244571         0.100254
 C        -0.202873        -2.656293         0.053269
 O        -1.729392        -0.789277        -0.878903
 H        -3.586223        -1.719836         0.677224
 H        -2.458064        -2.451110         1.928354
 H        -3.519480        -1.167635         2.293326
 H        -1.364938        -0.145428         2.151583
 H        -2.837845         0.893664        -0.190602
 H        -0.796674         1.492886        -1.368332
 H        -0.377389         2.040514         0.426218
 H         0.044007        -3.010658         1.027187
 H        -1.031630        -3.257734        -0.101445
 H         0.617886        -2.833060        -0.603208
