19
Iteration:  3587
 C        -2.855350        -1.485168         1.552081
 C        -1.677152        -0.593362         1.239820
 C        -1.975461         0.333100        -0.018791
 C        -0.737530         1.111157        -0.118543
 C         0.327956         0.012034         0.057238
 O         1.512738         0.070295         0.225543
 C        -0.685755        -1.186005         0.120040
 C        -0.192176        -2.602428        -0.071652
 O        -1.767162        -0.853929        -0.844597
 H        -3.089763        -2.217509         0.746436
 H        -2.989054        -2.006535         2.539878
 H        -3.749615        -0.808168         1.553962
 H        -1.113839        -0.088155         1.986448
 H        -2.944192         0.844811        -0.296079
 H        -0.643678         1.458558        -1.101591
 H        -0.382193         1.966763         0.418135
 H         0.473927        -2.756733         0.801300
 H        -1.067663        -3.354198        -0.089692
 H         0.351246        -2.613908        -1.039809
