19
Iteration:  4645charge 0 multiplicity 1
 C        -2.952268        -1.597699         1.414696
 C        -1.767446        -0.603771         1.180395
 C        -1.928805         0.332205         0.039808
 C        -0.701668         1.267840         0.005118
 C         0.326462        -0.002221         0.031228
 O         1.498018         0.016991        -0.005955
 C        -0.638123        -1.183516         0.128715
 C        -0.195143        -2.634614         0.208448
 O        -1.692326        -0.772706        -0.950323
 H        -3.635823        -1.606824         0.551534
 H        -2.601648        -2.529538         1.990357
 H        -3.476301        -1.033412         2.237830
 H        -1.360621        -0.352608         2.161176
 H        -2.977827         0.797915         0.044021
 H        -0.678413         2.013350        -0.713859
 H        -0.399995         1.886287         0.820981
 H         0.181819        -2.685349         1.219520
 H        -1.019335        -3.445646         0.058074
 H         0.592166        -2.930117        -0.455500
