19
Iteration:  1475
 C        -2.985526        -1.578455         1.634200
 C        -1.681675        -0.763271         1.249427
 C        -1.913396         0.339339        -0.012169
 C        -0.723794         1.159723        -0.168884
 C         0.295589         0.035224         0.019965
 O         1.556913         0.256914         0.030752
 C        -0.687728        -1.211505         0.198224
 C        -0.325175        -2.696271         0.045352
 O        -1.613664        -0.725492        -0.908096
 H        -2.439522        -2.541073         1.877918
 H        -3.536463        -1.065521         2.474273
 H        -3.697097        -1.884528         0.808370
 H        -1.252702        -0.316135         2.175505
 H        -2.907225         0.633733         0.084078
 H        -0.494324         1.603324        -1.259037
 H        -0.445610         1.938827         0.612870
 H        -0.083048        -3.075066         1.107213
 H        -1.304430        -3.210240        -0.198726
 H         0.563699        -3.030422        -0.517331
