19
Iteration:  3360charge 0 multiplicity 1
 C        -2.716178        -1.617676         1.701377
 C        -1.758402        -0.600827         1.097648
 C        -2.021105         0.360004        -0.074446
 C        -0.685592         1.258437        -0.126940
 C         0.231662         0.055834         0.096416
 O         1.472655        -0.028843         0.216903
 C        -0.718579        -1.112033         0.083944
 C        -0.267224        -2.617228         0.128189
 O        -1.644117        -0.820416        -1.030052
 H        -3.216786        -1.885621         0.763880
 H        -2.379099        -2.546589         2.133449
 H        -3.453413        -1.120307         2.297043
 H        -1.103655        -0.066650         1.803932
 H        -3.015172         0.760856        -0.136058
 H        -0.402895         1.634183        -1.172412
 H        -0.640206         1.977810         0.748370
 H        -0.121318        -2.902361         1.142284
 H        -1.103181        -3.195476        -0.305332
 H         0.631647        -2.823935        -0.414888
