19
Iteration:  3222
 C        -2.918414        -1.636238         1.555337
 C        -1.819015        -0.627263         1.188933
 C        -2.105593         0.382133         0.017463
 C        -0.709757         1.230529        -0.064108
 C         0.319660         0.015699         0.040529
 O         1.530192        -0.015486         0.027093
 C        -0.682115        -1.183408         0.154697
 C        -0.186199        -2.622582         0.222935
 O        -1.547586        -0.687923        -1.004991
 H        -3.186227        -2.169851         0.593972
 H        -2.715762        -2.357137         2.380382
 H        -3.808057        -0.999940         1.893371
 H        -1.364804        -0.405502         2.196048
 H        -2.985601         0.807633        -0.433116
 H        -0.804793         1.694109        -1.038067
 H        -0.458461         1.929765         0.703388
 H         0.952424        -2.687748         0.491048
 H        -0.690817        -3.185848         1.007883
 H        -0.209336        -3.111071        -0.817117
