19
Iteration:  3040charge 0 multiplicity 1
 C        -2.812826        -1.638357         1.489024
 C        -1.656606        -0.625050         1.226872
 C        -1.947800         0.394370         0.016965
 C        -0.714590         1.198004        -0.302638
 C         0.272771         0.019631         0.012340
 O         1.497569         0.092247         0.258346
 C        -0.685292        -1.179115         0.130627
 C        -0.325136        -2.636434         0.142361
 O        -1.692378        -0.802172        -0.893110
 H        -3.491662        -1.801891         0.649572
 H        -2.641196        -2.601408         1.948395
 H        -3.578309        -1.148763         2.143417
 H        -1.212924        -0.198287         2.120999
 H        -3.023666         0.797921        -0.080716
 H        -0.603107         1.438651        -1.470867
 H        -0.214026         2.022778         0.438275
 H        -0.113218        -2.751546         1.155775
 H        -1.016841        -3.278473        -0.321765
 H         0.675728        -2.553450        -0.282741
