19
Iteration:    11charge 0 multiplicity 1
 C        -2.818264        -1.526471         1.422744
 C        -1.748182        -0.589336         1.217570
 C        -2.023580         0.334381        -0.012750
 C        -0.773226         1.187431        -0.140606
 C         0.268011         0.061289         0.083373
 O         1.498047         0.097445         0.133661
 C        -0.725290        -1.192231         0.164373
 C        -0.158411        -2.599537         0.051251
 O        -1.673260        -0.894697        -0.808639
 H        -2.288111        -2.260679         2.038754
 H        -3.574015        -0.992732         2.015320
 H        -3.222764        -2.016263         0.544480
 H        -1.404251        -0.352569         2.192612
 H        -3.001072         0.691498        -0.311726
 H        -0.336590         1.634544        -1.071155
 H        -0.530973         1.832946         0.619095
 H         0.707290        -2.702660         0.790827
 H        -0.830068        -3.438135         0.284815
 H         0.254639        -2.782012        -1.003301
