19
Iteration:  2225charge 0 multiplicity 1
 C        -2.869328        -1.530904         1.681130
 C        -1.698379        -0.685786         1.166301
 C        -1.998672         0.404578         0.002773
 C        -0.711863         1.112578        -0.094250
 C         0.272924        -0.031180         0.041561
 O         1.464123        -0.048949         0.192323
 C        -0.726535        -1.229551         0.122781
 C        -0.082496        -2.536889        -0.039656
 O        -1.759840        -0.679956        -0.968059
 H        -2.513045        -1.668998         2.759397
 H        -3.867438        -1.050561         1.573618
 H        -2.972676        -2.548531         1.194616
 H        -1.136487        -0.237290         1.991044
 H        -2.961784         1.019237        -0.138053
 H        -0.692274         1.637920        -1.128493
 H        -0.563570         1.841192         0.661181
 H         0.865953        -2.316784         0.614581
 H        -0.738512        -3.454028         0.159176
 H         0.305415        -2.635433        -1.116250
