19
Iteration:   407
 C        -2.804784        -1.518842         1.628119
 C        -1.729104        -0.585716         1.180397
 C        -1.976505         0.242611        -0.034699
 C        -0.762766         1.144081        -0.243500
 C         0.301916         0.041045         0.033143
 O         1.471221         0.105081         0.312967
 C        -0.628244        -1.160155         0.120979
 C        -0.232471        -2.571078         0.009539
 O        -1.689337        -0.866424        -0.921414
 H        -2.524354        -1.975616         2.589916
 H        -3.758769        -1.012201         1.803343
 H        -3.007782        -2.370055         0.941540
 H        -1.336726        -0.055828         2.057907
 H        -2.994480         0.793008        -0.244662
 H        -0.702952         1.512422        -1.338940
 H        -0.595846         1.927826         0.567488
 H         0.409209        -2.907950         0.858133
 H        -1.031567        -3.274267        -0.100728
 H         0.246906        -2.597461        -0.994323
