19
Iteration:   779
 C        -2.898919        -1.541015         1.622738
 C        -1.774746        -0.623790         1.117211
 C        -2.022308         0.273188        -0.059307
 C        -0.731409         1.144208         0.035370
 C         0.246817        -0.003982         0.125747
 O         1.445378         0.016722        -0.047006
 C        -0.692193        -1.216295         0.154208
 C        -0.130581        -2.559123         0.169816
 O        -1.546018        -0.702529        -1.029253
 H        -2.897310        -1.827700         2.728678
 H        -3.795235        -0.848279         1.556407
 H        -3.117200        -2.468284         1.032759
 H        -1.184933        -0.179842         1.994670
 H        -3.074802         0.690908        -0.299900
 H        -0.465978         1.878410        -0.751351
 H        -0.915724         1.757200         0.998296
 H         0.543689        -2.573709         1.045975
 H        -0.796669        -3.454149         0.298731
 H         0.585240        -2.718577        -0.660923
