19
Iteration:  2341charge 0 multiplicity 1
 C        -2.760920        -1.617813         1.547941
 C        -1.729874        -0.502257         1.204231
 C        -2.029681         0.404856        -0.052301
 C        -0.735899         1.188136        -0.001740
 C         0.198089        -0.098042         0.055147
 O         1.451816        -0.136949         0.077069
 C        -0.764485        -1.132439         0.120655
 C        -0.098923        -2.456202         0.083738
 O        -1.645723        -0.808629        -0.940027
 H        -2.525602        -2.636467         1.202775
 H        -2.947914        -1.651595         2.589517
 H        -3.707453        -1.284331         1.089632
 H        -1.469543         0.024415         2.172385
 H        -2.938848         0.947436        -0.337041
 H        -0.445983         1.754692        -0.895886
 H        -0.798422         1.922752         0.842326
 H         0.476943        -2.527691         0.983543
 H        -0.833632        -3.298016         0.068395
 H         0.579108        -2.602091        -0.678230
