19
Iteration:  4770charge 0 multiplicity 1
 C        -2.944624        -1.539923         1.587934
 C        -1.727572        -0.634692         1.240310
 C        -1.974001         0.350048        -0.011655
 C        -0.678514         1.177552        -0.161797
 C         0.276593        -0.011157         0.010688
 O         1.480912         0.020426         0.239580
 C        -0.716600        -1.209003         0.164061
 C        -0.193760        -2.563908        -0.005901
 O        -1.630702        -0.773911        -0.935172
 H        -3.535382        -1.837732         0.768207
 H        -2.543951        -2.389762         2.042215
 H        -3.522215        -0.955803         2.283633
 H        -1.276297        -0.290419         2.127773
 H        -2.825936         0.793892        -0.443245
 H        -0.915436         1.615877        -1.164329
 H        -0.316411         1.878222         0.617647
 H         0.752414        -2.608966         0.625249
 H        -1.007082        -3.215271         0.123244
 H         0.316989        -2.800482        -1.002524
