19
Iteration:  3257charge 0 multiplicity 1
 C        -2.911781        -1.488945         1.590116
 C        -1.765532        -0.584990         1.162906
 C        -2.050911         0.328885        -0.084711
 C        -0.674006         1.225490         0.036278
 C         0.266692        -0.022664         0.143549
 O         1.438220        -0.054383         0.074346
 C        -0.742625        -1.138106         0.218529
 C        -0.030340        -2.558487         0.047417
 O        -1.651878        -0.880857        -1.008604
 H        -3.148897        -2.209316         0.776106
 H        -2.622134        -2.004551         2.517026
 H        -3.819263        -0.824324         1.698598
 H        -1.174677         0.074639         1.930833
 H        -2.964945         0.872815        -0.564994
 H        -0.490286         1.900850        -0.756657
 H        -0.605756         1.828918         0.893870
 H         1.064677        -2.567301         0.497625
 H        -0.658262        -3.458814         0.395179
 H        -0.035485        -2.829355        -1.082236
