19
Iteration:  3997
 C        -2.958783        -1.464454         1.453909
 C        -1.706363        -0.572157         1.227773
 C        -2.007140         0.310053         0.039211
 C        -0.689521         1.164432        -0.055982
 C         0.201886         0.001348         0.100509
 O         1.446622         0.002522         0.032928
 C        -0.689309        -1.248318         0.160065
 C        -0.093642        -2.598476         0.036128
 O        -1.620644        -0.829803        -0.855470
 H        -3.364580        -1.467459         0.463291
 H        -2.525465        -2.403922         1.695735
 H        -3.613729        -0.928981         2.157889
 H        -1.243416        -0.086220         2.098288
 H        -2.871594         0.941271         0.213295
 H        -0.602570         1.796203        -0.870544
 H        -0.695914         1.844920         0.749678
 H         0.821449        -2.493951         0.539313
 H        -0.834399        -3.382634         0.270353
 H         0.255605        -2.738420        -0.968406
