19
Iteration:  2071
 C        -2.873539        -1.689054         1.688692
 C        -1.841608        -0.530044         1.236720
 C        -1.987876         0.375025         0.055481
 C        -0.685804         1.171632         0.027622
 C         0.329096         0.062799         0.048275
 O         1.484452        -0.164872        -0.028742
 C        -0.727802        -1.192844         0.114410
 C        -0.115196        -2.489613        -0.032842
 O        -1.713039        -0.688120        -1.005862
 H        -3.975167        -1.462929         1.570703
 H        -2.614525        -2.601375         1.177044
 H        -2.489777        -1.830637         2.718017
 H        -1.470445        -0.098601         2.191918
 H        -3.023265         0.798383        -0.090168
 H        -0.640069         1.915203        -0.787958
 H        -0.403335         1.820093         0.842315
 H         0.507328        -2.710877         0.917559
 H        -0.799933        -3.419037        -0.125123
 H         0.622356        -2.297291        -0.805376
