19
Iteration:   805
 C        -3.104265        -1.663582         1.605975
 C        -1.828169        -0.649812         1.170699
 C        -1.940115         0.329129         0.056766
 C        -0.699383         1.226132        -0.096850
 C         0.359079         0.107325         0.019786
 O         1.551600         0.123834        -0.081238
 C        -0.697713        -1.215264         0.189328
 C        -0.190001        -2.613559         0.173078
 O        -1.519365        -0.800411        -0.941832
 H        -2.794037        -2.209617         2.491346
 H        -3.858421        -0.962524         2.058222
 H        -3.540707        -2.441894         0.921580
 H        -1.311472        -0.330905         2.089925
 H        -2.868705         0.745240        -0.273546
 H        -0.819430         1.859478        -0.927826
 H        -0.581161         1.915884         0.803656
 H         0.043456        -3.033740         1.174415
 H        -0.989988        -3.224096        -0.174528
 H         0.650974        -2.770542        -0.504130
