19
Iteration:   434charge 0 multiplicity 1
 C        -2.823997        -1.508218         1.416404
 C        -1.717562        -0.562666         1.320356
 C        -1.942173         0.296818        -0.054490
 C        -0.740127         1.244803        -0.253407
 C         0.278600         0.119467         0.080934
 O         1.496220         0.128134         0.157057
 C        -0.662130        -1.205597         0.238091
 C        -0.214085        -2.686056         0.015146
 O        -1.702571        -0.955987        -0.751457
 H        -2.805275        -2.346247         2.121952
 H        -3.817244        -1.057114         1.713021
 H        -3.009676        -1.985253         0.451930
 H        -1.362970        -0.082723         2.260184
 H        -2.945890         0.751953        -0.450828
 H        -0.570113         1.664317        -1.218696
 H        -0.794450         2.060415         0.510832
 H         0.613685        -2.971285         0.667078
 H        -1.007745        -3.502851         0.076852
 H         0.091631        -2.705902        -1.038521
