19
Iteration:  1681
 C        -2.795839        -1.553952         1.604238
 C        -1.650794        -0.600689         1.214029
 C        -2.022138         0.359513        -0.034526
 C        -0.797300         1.303391        -0.056711
 C         0.257019        -0.016357         0.005385
 O         1.496759        -0.194246         0.133413
 C        -0.810801        -1.176085         0.082685
 C        -0.057684        -2.456349         0.116952
 O        -1.699214        -0.813011        -0.951245
 H        -2.427164        -2.615146         1.700642
 H        -3.383591        -1.279710         2.501882
 H        -3.578048        -1.686545         0.826678
 H        -1.172148         0.091408         1.940661
 H        -2.990008         0.780461        -0.420523
 H        -0.837499         1.918906        -1.004787
 H        -0.671972         1.977291         0.804901
 H         0.590416        -2.592971         1.038820
 H        -0.845593        -3.303953         0.146874
 H         0.313777        -2.534232        -0.908744
