19
Iteration:  1557charge 0 multiplicity 1
 C        -2.894710        -1.709509         1.668470
 C        -1.873838        -0.622641         1.215455
 C        -2.022705         0.409463         0.007728
 C        -0.672988         1.162742        -0.138472
 C         0.340826        -0.002076         0.122490
 O         1.532648        -0.146734        -0.009094
 C        -0.760119        -1.101421         0.112623
 C        -0.020795        -2.464844         0.095348
 O        -1.731860        -0.671281        -0.954250
 H        -2.602424        -2.157651         2.583459
 H        -3.868399        -1.293739         1.892840
 H        -3.062371        -2.434318         0.880674
 H        -1.497235        -0.131309         2.088399
 H        -2.981009         1.019012        -0.232783
 H        -0.662437         1.665672        -1.068983
 H        -0.462406         1.739426         0.804109
 H         0.777192        -2.462752         0.785979
 H        -0.674307        -3.253917         0.313149
 H         0.299346        -2.701494        -0.917044
