19
Iteration:  3619charge 0 multiplicity 1
 C        -2.795061        -1.644690         1.645444
 C        -1.716978        -0.616837         1.168746
 C        -1.989408         0.417835        -0.025701
 C        -0.710432         1.219400        -0.204157
 C         0.225337         0.016876         0.038474
 O         1.462357        -0.030032         0.241164
 C        -0.713587        -1.151836         0.131928
 C        -0.217714        -2.595057         0.040227
 O        -1.672763        -0.741524        -0.933833
 H        -3.264087        -2.180756         0.783139
 H        -2.481519        -2.413882         2.404711
 H        -3.532542        -0.934955         2.068806
 H        -1.078213        -0.273263         1.977529
 H        -2.940647         0.937004        -0.378643
 H        -0.763573         1.542612        -1.226507
 H        -0.164027         2.016620         0.411355
 H         0.212975        -2.899904         0.997521
 H        -1.004795        -3.382570        -0.169219
 H         0.621074        -2.849327        -0.595481
