19
Iteration:   787
 C        -2.988492        -1.556123         1.674883
 C        -1.811518        -0.765360         1.166886
 C        -1.984894         0.272163        -0.075423
 C        -0.677482         1.214070         0.069284
 C         0.255580         0.019962         0.041975
 O         1.451137         0.059097        -0.051945
 C        -0.660342        -1.141861         0.138297
 C        -0.161956        -2.553393         0.178831
 O        -1.529596        -0.750105        -1.027632
 H        -2.867279        -1.933827         2.688288
 H        -3.815913        -0.893013         1.624373
 H        -3.092614        -2.364128         0.996362
 H        -1.384095        -0.225141         2.000951
 H        -2.942173         0.702497        -0.294475
 H        -0.472963         1.644073        -1.009375
 H        -0.572342         1.801000         0.959394
 H         0.354885        -2.540167         1.134963
 H        -0.971226        -3.335716         0.164538
 H         0.599745        -2.710889        -0.613992
