19
Iteration:  1674
 C        -2.798264        -1.573025         1.605070
 C        -1.717265        -0.608506         1.191405
 C        -2.013512         0.357864        -0.063445
 C        -0.826923         1.286993        -0.103928
 C         0.278681        -0.067708         0.046845
 O         1.469865        -0.181799         0.111863
 C        -0.702651        -1.153670         0.123899
 C        -0.126369        -2.434665         0.107526
 O        -1.683151        -0.781851        -0.930988
 H        -2.464974        -2.610264         1.786459
 H        -3.199263        -1.203825         2.561957
 H        -3.526702        -1.426343         0.798565
 H        -1.193888        -0.168877         2.129063
 H        -3.004534         0.653670        -0.253490
 H        -0.651640         1.882855        -1.005508
 H        -0.738465         1.788663         0.834001
 H         0.742700        -2.421559         0.796771
 H        -0.820653        -3.287394         0.217864
 H         0.370295        -2.521732        -0.924665
