19
Iteration:  2814charge 0 multiplicity 1
 C        -3.008912        -1.469795         1.681049
 C        -1.739376        -0.668702         1.150581
 C        -1.939954         0.291297         0.049638
 C        -0.689133         1.133493        -0.125069
 C         0.294286         0.024247         0.088042
 O         1.531980         0.142713         0.187267
 C        -0.764492        -1.216687         0.055739
 C        -0.160649        -2.637955         0.079477
 O        -1.606962        -0.789199        -1.014524
 H        -3.590746        -1.926109         0.864047
 H        -2.761051        -2.214509         2.464727
 H        -3.751366        -0.747873         2.066474
 H        -1.011337        -0.414617         1.943867
 H        -2.963031         0.680818        -0.181294
 H        -0.584450         1.509067        -1.210781
 H        -0.562090         2.047573         0.450065
 H         0.137252        -3.123517         1.057439
 H        -0.968180        -3.321478        -0.449585
 H         0.587094        -2.651474        -0.793847
