19
Iteration:  1224
 C        -2.938850        -1.538125         1.576695
 C        -1.636633        -0.772381         1.269310
 C        -1.966030         0.378006         0.117769
 C        -0.745415         1.194090        -0.145010
 C         0.257132         0.129001         0.099196
 O         1.431638         0.112586         0.000156
 C        -0.628816        -1.209855         0.188942
 C        -0.275542        -2.659078         0.014387
 O        -1.539703        -0.776599        -0.940953
 H        -2.927239        -2.351800         2.347268
 H        -3.662772        -0.777158         1.964753
 H        -3.263326        -2.030505         0.613521
 H        -1.209177        -0.371796         2.229652
 H        -2.962238         0.622035        -0.298677
 H        -0.741788         1.406376        -1.342592
 H        -0.444565         2.019811         0.600656
 H        -0.370527        -3.180896         1.018913
 H        -0.993566        -3.160807        -0.562596
 H         0.749734        -2.842757        -0.247601
