19
Iteration:  2821charge 0 multiplicity 1
 C        -2.997018        -1.432649         1.676643
 C        -1.711100        -0.685527         1.175685
 C        -2.017513         0.331011         0.022787
 C        -0.678385         1.179493        -0.140667
 C         0.293438        -0.009181         0.116234
 O         1.486606         0.102776         0.173295
 C        -0.718765        -1.192040         0.083256
 C        -0.166909        -2.620255         0.005056
 O        -1.577874        -0.851597        -1.030330
 H        -3.574839        -1.856952         0.836830
 H        -2.800527        -2.305011         2.322638
 H        -3.735716        -0.792599         2.263374
 H        -1.124021        -0.362199         2.078010
 H        -3.020940         0.766179        -0.163504
 H        -0.573208         1.652052        -1.090893
 H        -0.547323         1.879194         0.681051
 H         0.196370        -2.851877         1.049550
 H        -0.920877        -3.343790        -0.172512
 H         0.748952        -2.692515        -0.638582
