19
Iteration:  2212
 C        -2.825721        -1.593870         1.698495
 C        -1.764780        -0.662473         1.133900
 C        -1.969716         0.353022         0.039617
 C        -0.655175         1.227173        -0.082053
 C         0.189068        -0.053995         0.097129
 O         1.451645        -0.105560         0.124497
 C        -0.804947        -1.190235        -0.008135
 C        -0.037623        -2.507516         0.000218
 O        -1.726671        -0.642563        -0.967240
 H        -2.906875        -1.649529         2.881252
 H        -3.832465        -1.124310         1.544923
 H        -2.827468        -2.669612         1.302774
 H        -1.264482        -0.264784         2.015525
 H        -2.902903         0.782579        -0.050744
 H        -0.418597         1.607085        -1.111152
 H        -0.531471         1.996098         0.682389
 H         0.910394        -2.405042         0.668506
 H        -0.536406        -3.324679         0.664817
 H         0.357399        -2.881352        -0.946342
