19
Iteration:  2314charge 0 multiplicity 1
 C        -2.757757        -1.659968         1.638469
 C        -1.673193        -0.658788         1.098427
 C        -2.037787         0.371474        -0.010227
 C        -0.720101         1.273935        -0.114272
 C         0.299155        -0.021751         0.006595
 O         1.462751        -0.063415         0.200924
 C        -0.683444        -1.163247         0.105473
 C        -0.194256        -2.562839         0.139538
 O        -1.743853        -0.685285        -1.026134
 H        -2.571459        -2.721961         1.439586
 H        -2.922917        -1.478935         2.741889
 H        -3.761393        -1.451755         1.248256
 H        -1.379200        -0.166820         2.000171
 H        -3.050768         0.878773        -0.046514
 H        -0.600140         1.821393        -1.081411
 H        -0.508778         2.070754         0.628132
 H         0.156477        -2.740940         1.196154
 H        -1.030595        -3.247691         0.024846
 H         0.602712        -2.967145        -0.596735
