19
Iteration:  4933charge 0 multiplicity 1
 C        -2.970101        -1.475579         1.448543
 C        -1.807545        -0.678590         1.196420
 C        -1.975841         0.346038         0.080314
 C        -0.705993         1.154995         0.000518
 C         0.223525        -0.029603         0.067203
 O         1.434330        -0.047357        -0.088587
 C        -0.718366        -1.202484         0.168321
 C        -0.092140        -2.577914         0.197495
 O        -1.530651        -0.670779        -0.950770
 H        -3.339951        -2.022065         0.530555
 H        -2.662492        -2.319190         2.188990
 H        -3.835601        -0.929911         1.970992
 H        -1.272330        -0.320988         2.140696
 H        -2.951337         0.666270        -0.235212
 H        -0.408924         1.931702        -0.625371
 H        -0.544348         1.710203         0.892533
 H         0.913680        -2.446751         0.631537
 H        -0.733522        -3.197888         0.702698
 H         0.161203        -3.060952        -0.756778
