19
Iteration:  2148
 C        -2.973856        -1.604133         1.465544
 C        -1.731098        -0.699789         1.248446
 C        -1.849929         0.364506         0.125833
 C        -0.655857         1.194171        -0.043852
 C         0.328675         0.028337         0.052876
 O         1.481379         0.169942        -0.121563
 C        -0.695748        -1.254901         0.262001
 C        -0.255073        -2.648277         0.061866
 O        -1.655155        -0.772477        -0.857314
 H        -3.534013        -1.183831         2.370170
 H        -3.485278        -1.577425         0.517241
 H        -2.710084        -2.656181         1.764764
 H        -1.461225        -0.186557         2.190997
 H        -2.811508         0.943684         0.022171
 H        -0.674095         1.726992        -1.049243
 H        -0.612264         2.027014         0.634580
 H         0.857956        -2.913734         0.191718
 H        -0.940627        -3.371360         0.643066
 H        -0.617994        -2.762933        -0.970507
