19
Iteration:   351charge 0 multiplicity 1
 C        -2.752011        -1.520077         1.797697
 C        -1.744554        -0.520479         1.121511
 C        -2.094956         0.246716        -0.204865
 C        -0.790121         1.150054        -0.065515
 C         0.243643        -0.003512         0.038256
 O         1.427204        -0.071311         0.324778
 C        -0.653222        -1.130268         0.014883
 C        -0.107043        -2.460596         0.082451
 O        -1.652181        -0.849765        -1.071515
 H        -2.219216        -2.375114         2.214603
 H        -3.324694        -0.995317         2.574971
 H        -3.380065        -1.842706         0.976742
 H        -1.350617         0.064187         1.923919
 H        -3.070802         0.580413        -0.506499
 H        -0.513168         1.756359        -1.023043
 H        -0.712059         1.654096         0.845919
 H         0.619475        -2.508266         0.925095
 H        -0.887904        -3.191119         0.159365
 H         0.441689        -2.591594        -0.833999
