19
Iteration:  2034
 C        -2.773677        -1.566166         1.643551
 C        -1.627769        -0.670325         1.260913
 C        -1.952951         0.327384         0.106318
 C        -0.705044         1.193362        -0.075564
 C         0.242383         0.052831         0.039528
 O         1.413806         0.075146         0.092672
 C        -0.730086        -1.169769         0.074364
 C        -0.338542        -2.656128        -0.072570
 O        -1.620754        -0.731532        -0.975348
 H        -3.742405        -1.140425         1.955189
 H        -2.891999        -2.390006         0.869941
 H        -2.447360        -2.112597         2.563803
 H        -1.138835        -0.208204         2.098466
 H        -2.873048         0.818291         0.100345
 H        -0.519998         1.616072        -1.048626
 H        -0.573775         1.901769         0.770595
 H        -0.173589        -2.959729         0.962274
 H        -1.111318        -3.278407        -0.522769
 H         0.638901        -2.910582        -0.623669
