19
Iteration:  2935
 C        -2.914134        -1.546156         1.450961
 C        -1.751895        -0.569361         1.224933
 C        -1.953567         0.306349        -0.017903
 C        -0.645093         1.203796        -0.037664
 C         0.302441        -0.009280         0.040218
 O         1.469415         0.090875         0.042053
 C        -0.660132        -1.188992         0.221308
 C        -0.214141        -2.589027         0.134776
 O        -1.635395        -0.903546        -0.933078
 H        -3.139114        -2.200987         0.579362
 H        -3.059261        -1.986981         2.468512
 H        -3.684357        -0.755187         1.400215
 H        -1.430793        -0.001636         2.148116
 H        -2.937047         0.759234        -0.142480
 H        -0.598487         1.994406        -0.789377
 H        -0.714388         1.793628         0.829212
 H         0.840081        -2.789664         0.528922
 H        -0.942476        -3.309211         0.737203
 H        -0.403717        -2.832284        -0.979308
