19
Iteration:   353charge 0 multiplicity 1
 C        -2.751817        -1.521843         1.808453
 C        -1.741480        -0.533137         1.105435
 C        -2.073731         0.232980        -0.212982
 C        -0.779525         1.171808        -0.067394
 C         0.237396         0.008027         0.029543
 O         1.416644        -0.078568         0.329635
 C        -0.666259        -1.132461         0.022081
 C        -0.090562        -2.460303         0.079735
 O        -1.655228        -0.842479        -1.079565
 H        -2.208429        -2.345931         2.257510
 H        -3.275388        -0.945874         2.545024
 H        -3.401024        -1.903627         1.020069
 H        -1.373161         0.034773         1.943168
 H        -3.128910         0.682955        -0.492154
 H        -0.591237         1.677203        -0.979765
 H        -0.703420         1.623519         0.923911
 H         0.568026        -2.491324         0.997490
 H        -0.891811        -3.170856         0.196334
 H         0.439271        -2.648896        -0.870878
