19
Iteration:  4781charge 0 multiplicity 1
 C        -2.878538        -1.598552         1.639824
 C        -1.763850        -0.663840         1.201923
 C        -2.048088         0.365966        -0.062991
 C        -0.707078         1.170033        -0.221763
 C         0.311527        -0.057113         0.044637
 O         1.517126        -0.023360         0.262904
 C        -0.714348        -1.120496         0.144970
 C        -0.212882        -2.516502         0.003034
 O        -1.594888        -0.740762        -0.928217
 H        -3.633284        -1.745281         0.914241
 H        -2.619803        -2.537764         2.032695
 H        -3.370890        -1.131361         2.484233
 H        -1.441920        -0.064316         1.987144
 H        -3.015689         0.783613        -0.104639
 H        -0.420438         1.555652        -1.246990
 H        -0.556062         2.014114         0.492704
 H         0.509161        -2.864725         0.807665
 H        -0.935139        -3.290765         0.103515
 H         0.120177        -2.486802        -1.091465
