19
Iteration:  3246charge 0 multiplicity 1
 C        -2.880069        -1.517233         1.592382
 C        -1.842307        -0.593740         1.144917
 C        -1.936897         0.309031        -0.085628
 C        -0.654368         1.190088         0.016279
 C         0.204642         0.054047         0.136481
 O         1.458937        -0.049599         0.042077
 C        -0.696387        -1.208483         0.153038
 C        -0.130157        -2.521919         0.114434
 O        -1.636727        -0.825554        -1.011699
 H        -3.126980        -2.301687         0.838882
 H        -2.640533        -1.989768         2.552285
 H        -3.828508        -0.934801         1.835842
 H        -1.511318        -0.288735         2.204318
 H        -2.933422         0.860836        -0.348058
 H        -0.413071         1.832595        -0.783231
 H        -0.686454         1.697252         0.939049
 H         1.024489        -2.433439         0.385143
 H        -0.560567        -3.336315         0.773595
 H        -0.025808        -2.687580        -1.028483
