19
Iteration:  2933charge 0 multiplicity 1
 C        -2.903568        -1.548629         1.438701
 C        -1.745365        -0.567758         1.222853
 C        -1.964909         0.302475        -0.009004
 C        -0.646299         1.201924        -0.044314
 C         0.283610         0.001397         0.049817
 O         1.477820         0.088982         0.041220
 C        -0.654761        -1.192812         0.220503
 C        -0.216074        -2.577727         0.142864
 O        -1.639301        -0.904746        -0.930933
 H        -3.122633        -2.167330         0.545573
 H        -3.039834        -1.996579         2.450111
 H        -3.664243        -0.725560         1.347597
 H        -1.412343        -0.041107         2.165629
 H        -3.020665         0.727076        -0.100410
 H        -0.515666         2.003305        -0.830013
 H        -0.646748         1.742496         0.830039
 H         0.792124        -2.821050         0.521027
 H        -0.936152        -3.249318         0.705216
 H        -0.445591        -2.889010        -0.932293
