19
Iteration:  3876charge 0 multiplicity 1
 C        -2.861179        -1.545513         1.675228
 C        -1.738199        -0.649667         1.154693
 C        -2.007197         0.406554         0.048832
 C        -0.678769         1.200911        -0.186932
 C         0.252380        -0.066831         0.065302
 O         1.473799         0.002182         0.232297
 C        -0.765713        -1.196930         0.132977
 C        -0.091854        -2.558697        -0.016361
 O        -1.716028        -0.759558        -0.966856
 H        -3.391980        -1.643440         0.713259
 H        -2.512224        -2.558536         1.971347
 H        -3.481341        -0.860667         2.342194
 H        -0.965235        -0.476777         2.026776
 H        -3.023196         0.788917        -0.074804
 H        -0.431938         1.346318        -1.241124
 H        -0.607939         2.107351         0.345528
 H         0.407644        -2.815699         0.961636
 H        -0.866658        -3.344587        -0.237423
 H         0.657214        -2.540716        -0.807951
