19
Iteration:  3930
 C        -2.743655        -1.593626         1.655643
 C        -1.720238        -0.627414         1.077000
 C        -1.938988         0.320662        -0.021963
 C        -0.710894         1.180593        -0.060333
 C         0.263264         0.054060         0.119019
 O         1.438056        -0.009793         0.168940
 C        -0.727963        -1.155962         0.126501
 C        -0.296556        -2.635017         0.068652
 O        -1.672400        -0.707742        -1.010978
 H        -2.862670        -2.300612         0.825669
 H        -2.338164        -2.051486         2.612502
 H        -3.754728        -1.085973         1.665143
 H        -1.254632        -0.072383         2.037341
 H        -2.891253         0.784858        -0.212661
 H        -0.346026         1.570457        -1.003216
 H        -0.699774         1.938075         0.677906
 H         0.589380        -2.720207         0.699832
 H        -1.147783        -3.339173         0.204834
 H         0.180126        -2.799350        -0.883615
