19
Iteration:  4045charge 0 multiplicity 1
 C        -2.932174        -1.626491         1.565429
 C        -1.862397        -0.653174         1.205478
 C        -1.907752         0.374477         0.046651
 C        -0.687832         1.198500         0.020711
 C         0.316330         0.015738         0.084853
 O         1.492224        -0.059270        -0.042082
 C        -0.738662        -1.227059         0.119029
 C        -0.162104        -2.525880         0.174005
 O        -1.655557        -0.689490        -1.004934
 H        -3.360104        -2.051752         0.623514
 H        -2.393894        -2.378555         2.173530
 H        -3.659815        -1.091189         2.129245
 H        -1.278603        -0.302438         2.205803
 H        -2.901497         0.791704        -0.272159
 H        -0.573770         1.531722        -1.032577
 H        -0.540937         2.153308         0.584835
 H         0.549683        -2.482487         1.038037
 H        -0.893728        -3.307280         0.099371
 H         0.586341        -2.595866        -0.670701
