19
Iteration:  3268charge 0 multiplicity 1
 C        -2.938106        -1.447209         1.586216
 C        -1.761691        -0.551387         1.164880
 C        -1.992501         0.338373        -0.106624
 C        -0.787980         1.221101        -0.007991
 C         0.259428        -0.018998         0.078311
 O         1.498344        -0.063410         0.113806
 C        -0.710757        -1.255673         0.142043
 C        -0.040656        -2.555996        -0.002480
 O        -1.621232        -0.829638        -0.889896
 H        -3.165473        -2.173588         0.772447
 H        -2.787191        -2.095191         2.465524
 H        -3.884291        -0.906945         1.875428
 H        -1.427995         0.085433         2.092419
 H        -3.086731         0.674091        -0.180350
 H        -0.495183         1.681243        -0.905364
 H        -0.741692         1.812683         0.855328
 H         0.956510        -2.595806         0.607560
 H        -0.735285        -3.351649         0.429834
 H         0.231261        -2.647355        -1.123178
