19
Iteration:   633
 C        -2.773578        -1.533170         1.819723
 C        -1.852181        -0.629088         1.094198
 C        -2.029121         0.301447        -0.143962
 C        -0.689711         1.198804        -0.222225
 C         0.189621         0.065647         0.152334
 O         1.364341        -0.053270         0.226096
 C        -0.795585        -1.277953         0.161333
 C        -0.107793        -2.529071         0.036611
 O        -1.493340        -0.717605        -1.058790
 H        -2.090155        -2.194961         2.340506
 H        -3.333872        -1.076268         2.623927
 H        -3.559729        -2.130484         1.334464
 H        -1.300634        -0.166322         1.930643
 H        -2.925257         0.732846        -0.401723
 H        -0.669995         1.768007        -1.238979
 H        -0.566203         1.914538         0.495071
 H         0.434116        -2.816599         0.968553
 H        -0.738164        -3.382285        -0.075037
 H         0.736627        -2.512925        -0.709494
