19
Iteration:   957
 C        -2.890589        -1.592822         1.591369
 C        -1.737071        -0.673427         1.288243
 C        -1.927662         0.328104        -0.044956
 C        -0.614721         1.154187        -0.183510
 C         0.276544         0.047257         0.116709
 O         1.450112         0.216414         0.162230
 C        -0.729263        -1.218621         0.130681
 C        -0.244350        -2.653840        -0.028235
 O        -1.644614        -0.800927        -0.913303
 H        -2.690788        -2.134824         2.525475
 H        -3.789697        -0.921480         1.736254
 H        -3.209076        -2.148274         0.665670
 H        -1.235499        -0.351788         2.259418
 H        -2.840471         0.876797        -0.070054
 H        -0.642423         1.474671        -1.175435
 H        -0.360635         1.957699         0.592590
 H         0.766101        -2.883532         0.396333
 H        -0.997285        -3.279586         0.462746
 H        -0.252513        -2.960258        -1.090470
