19
Iteration:  1001
 C        -2.780987        -1.605955         1.490665
 C        -1.628180        -0.596413         1.196230
 C        -2.033492         0.354438         0.014719
 C        -0.687267         1.233681        -0.166895
 C         0.237818         0.008257         0.043500
 O         1.443352        -0.107466         0.272413
 C        -0.702120        -1.096914         0.044005
 C        -0.136577        -2.448136         0.107648
 O        -1.796513        -0.859330        -0.913470
 H        -2.442491        -2.552899         1.949664
 H        -3.611479        -1.156165         2.098050
 H        -3.192508        -1.681702         0.455794
 H        -1.061451        -0.019720         1.983828
 H        -2.997715         0.675043        -0.250602
 H        -0.463987         1.649200        -1.119682
 H        -0.597477         1.940793         0.708073
 H         0.936762        -2.449096         0.257067
 H        -0.493746        -3.111927         0.898123
 H        -0.433999        -3.054998        -0.750758
