19
Iteration:  2683charge 0 multiplicity 1
 C        -3.013422        -1.407358         1.481255
 C        -1.771013        -0.660238         1.196206
 C        -2.015681         0.221071        -0.041079
 C        -0.700293         1.240490        -0.045379
 C         0.298769         0.095261         0.144461
 O         1.511923         0.083940         0.012322
 C        -0.674567        -1.211110         0.166113
 C        -0.148632        -2.669152         0.100829
 O        -1.559261        -0.879262        -0.879687
 H        -3.737006        -1.256283         0.662326
 H        -2.612549        -2.444659         1.505346
 H        -3.431377        -1.093227         2.440718
 H        -1.368602         0.063620         1.947595
 H        -3.073949         0.514056        -0.290335
 H        -0.560408         2.105148        -0.886681
 H        -0.809738         1.731762         1.017749
 H         0.660365        -2.875851         0.823293
 H        -0.868172        -3.517381         0.363702
 H         0.092627        -2.850728        -1.009405
