19
Iteration:     1charge 0 multiplicity 1
 C        -2.869570        -1.586285         1.537142
 C        -1.742036        -0.627340         1.188965
 C        -1.999621         0.302142        -0.023877
 C        -0.746443         1.189189        -0.107825
 C         0.262673         0.031762         0.060961
 O         1.461155         0.047994         0.106708
 C        -0.695638        -1.171949         0.157426
 C        -0.128918        -2.556169         0.111624
 O        -1.632958        -0.799535        -0.918822
 H        -2.523811        -2.372126         2.216473
 H        -3.685410        -1.053115         2.036706
 H        -3.269388        -2.058293         0.636291
 H        -1.331214        -0.147344         2.084668
 H        -2.975906         0.737407        -0.236939
 H        -0.644273         1.674035        -1.081736
 H        -0.643591         1.940891         0.679957
 H         0.630763        -2.668084         0.891090
 H        -0.901996        -3.315119         0.253547
 H         0.357100        -2.727698        -0.853440
