19
Iteration:   489charge 0 multiplicity 1
 C        -2.942909        -1.555238         1.599099
 C        -1.846367        -0.638529         1.073096
 C        -1.979453         0.322332        -0.103837
 C        -0.748957         1.313777         0.083706
 C         0.217444         0.039595         0.080060
 O         1.438707        -0.120782        -0.062636
 C        -0.667768        -1.180244         0.144166
 C         0.029182        -2.540797         0.315571
 O        -1.598937        -0.786233        -1.064907
 H        -2.583512        -2.518508         1.993503
 H        -3.616006        -1.222867         2.441368
 H        -3.715192        -1.917304         0.892536
 H        -1.415604        -0.090780         1.941586
 H        -2.974973         0.778560        -0.431860
 H        -0.462375         2.101751        -0.612336
 H        -0.843845         1.833005         1.035326
 H         0.891632        -2.398771         0.988973
 H        -0.739311        -3.242989         0.749582
 H         0.517453        -2.983133        -0.552027
