19
Iteration:  4450
 C        -3.011300        -1.552093         1.522477
 C        -1.671642        -0.706937         1.221513
 C        -2.002278         0.328538         0.038763
 C        -0.667542         1.196053        -0.073429
 C         0.274623        -0.041490         0.120332
 O         1.526458        -0.028881         0.083866
 C        -0.768403        -1.205099         0.148542
 C        -0.079362        -2.514916         0.080887
 O        -1.694623        -0.703679        -0.974358
 H        -3.605377        -1.714264         0.658646
 H        -2.918529        -2.506211         1.985642
 H        -3.513739        -0.897413         2.143437
 H        -1.099105        -0.247619         2.068347
 H        -2.996762         0.823641        -0.059900
 H        -0.571898         1.528935        -1.126999
 H        -0.578718         2.216558         0.232268
 H         0.795092        -2.554146         0.686436
 H        -0.670939        -3.299976         0.601140
 H         0.190196        -2.719190        -0.922978
