19
Iteration:  3742
 C        -2.954202        -1.512193         1.389299
 C        -1.731945        -0.563164         1.220569
 C        -1.988478         0.339820         0.029075
 C        -0.649978         1.186189        -0.004749
 C         0.299306        -0.067902         0.077130
 O         1.470290         0.003537        -0.046681
 C        -0.716815        -1.226507         0.227680
 C        -0.133107        -2.520017         0.089088
 O        -1.702891        -0.790697        -0.826773
 H        -2.938966        -2.415571         0.713321
 H        -2.789114        -1.916837         2.434279
 H        -3.986121        -1.117075         1.279291
 H        -1.203993        -0.158574         2.066469
 H        -2.974620         0.700776        -0.211475
 H        -0.718388         1.832287        -0.852637
 H        -0.508376         1.767516         0.883002
 H         0.834405        -2.587562         0.608179
 H        -0.603713        -3.446929         0.344738
 H         0.337961        -2.735987        -0.900321
