19
Iteration:  3694
 C        -2.948461        -1.528258         1.556273
 C        -1.746681        -0.713681         1.235603
 C        -2.003086         0.382000         0.040309
 C        -0.753637         1.167495        -0.070294
 C         0.275804        -0.020742         0.039062
 O         1.549093         0.056408         0.035265
 C        -0.745441        -1.194782         0.179338
 C        -0.173543        -2.586112         0.121001
 O        -1.569059        -0.757757        -0.959269
 H        -3.482570        -1.663721         0.643106
 H        -2.793098        -2.464024         2.032403
 H        -3.565195        -0.882258         2.157201
 H        -1.313457        -0.112693         2.106394
 H        -3.009128         0.854270        -0.147577
 H        -0.516181         1.378422        -1.128693
 H        -0.683250         2.086670         0.586667
 H         0.568944        -2.946158         0.727901
 H        -0.858188        -3.425606         0.079782
 H         0.345405        -2.712209        -0.762172
