19
Iteration:  4063
 C        -2.831618        -1.617346         1.511145
 C        -1.714866        -0.577494         1.187494
 C        -2.035142         0.405286        -0.005217
 C        -0.688355         1.177591        -0.036745
 C         0.275613         0.011366         0.048479
 O         1.444087        -0.019840        -0.016408
 C        -0.741594        -1.177290         0.217665
 C        -0.225059        -2.635865         0.134228
 O        -1.589911        -0.699746        -0.917465
 H        -3.105323        -2.336342         0.725647
 H        -2.490973        -2.430515         2.146880
 H        -3.734522        -1.064707         1.884141
 H        -1.302272        -0.029342         1.947294
 H        -3.064642         0.766234        -0.239456
 H        -0.530789         1.898881        -0.798141
 H        -0.456485         1.697184         0.898231
 H         0.320346        -2.884988         1.024669
 H        -1.103710        -3.288367        -0.029714
 H         0.562410        -2.883099        -0.580684
