19
Iteration:  1756charge 0 multiplicity 1
 C        -2.820285        -1.527550         1.616384
 C        -1.661293        -0.589386         1.234995
 C        -2.005646         0.323469        -0.052769
 C        -0.804193         1.129144        -0.125721
 C         0.292225         0.075978        -0.012154
 O         1.539877         0.128510         0.109936
 C        -0.605359        -1.180530         0.248060
 C        -0.351754        -2.688197        -0.080136
 O        -1.622530        -0.829066        -0.813832
 H        -2.855471        -1.992622         2.627420
 H        -3.770182        -0.984481         1.555218
 H        -2.959498        -2.386877         0.980407
 H        -1.065154        -0.297890         2.055109
 H        -3.080151         0.785283        -0.302954
 H        -0.559991         1.725099        -1.081293
 H        -0.704566         1.939030         0.669208
 H        -0.178032        -3.254150         0.857902
 H        -1.270817        -3.014546        -0.585022
 H         0.478983        -2.859749        -0.726095
