19
Iteration:  4853charge 0 multiplicity 1
 C        -2.831324        -1.557008         1.589356
 C        -1.648612        -0.657464         1.117978
 C        -2.013317         0.376623         0.028390
 C        -0.710654         1.238346        -0.140755
 C         0.298455         0.005698         0.091375
 O         1.475897         0.005412         0.260131
 C        -0.672972        -1.174127         0.000247
 C        -0.233919        -2.636565         0.062401
 O        -1.702446        -0.758089        -0.942675
 H        -3.340977        -2.049343         0.727292
 H        -2.777681        -2.262536         2.484867
 H        -3.636895        -0.878362         2.030156
 H        -0.911557        -0.225736         1.863731
 H        -3.057980         0.764265        -0.132662
 H        -0.561597         1.448975        -1.191634
 H        -0.579618         2.080704         0.532697
 H         0.006215        -2.819097         1.053829
 H        -1.019725        -3.360324         0.010829
 H         0.483585        -2.838576        -0.718835
