19
Iteration:   783charge 0 multiplicity 1
 C        -2.938450        -1.549785         1.654678
 C        -1.802371        -0.693352         1.140815
 C        -2.012452         0.270689        -0.070248
 C        -0.692057         1.182949         0.050278
 C         0.257455         0.005170         0.083026
 O         1.437909         0.037567        -0.048988
 C        -0.664212        -1.173750         0.148944
 C        -0.156484        -2.561156         0.169042
 O        -1.537909        -0.721775        -1.029694
 H        -2.928515        -1.872371         2.686003
 H        -3.774038        -0.816993         1.593750
 H        -3.075522        -2.448170         1.005670
 H        -1.251106        -0.229127         1.968165
 H        -3.003153         0.669716        -0.281836
 H        -0.457794         1.697544        -0.853658
 H        -0.806303         1.739427         0.992611
 H         0.468606        -2.525891         1.101549
 H        -0.827619        -3.379550         0.245661
 H         0.588730        -2.694262        -0.604233
