19
Iteration:  3597charge 0 multiplicity 1
 C        -2.900494        -1.537203         1.573557
 C        -1.675943        -0.532795         1.230188
 C        -1.966674         0.270709         0.025905
 C        -0.637549         1.148636        -0.172912
 C         0.289321        -0.015480        -0.007915
 O         1.517440         0.067815         0.251869
 C        -0.714438        -1.185973         0.118780
 C        -0.226214        -2.564607        -0.032861
 O        -1.751533        -0.803718        -0.889978
 H        -3.018217        -2.289256         0.771620
 H        -2.580012        -2.077221         2.528512
 H        -3.801681        -0.882709         1.692359
 H        -1.172459        -0.221229         2.138237
 H        -2.945203         0.863831        -0.131122
 H        -0.702970         1.397835        -1.187508
 H        -0.806494         2.023173         0.564256
 H         0.428444        -2.939366         0.748315
 H        -0.948098        -3.439181        -0.173038
 H         0.504327        -2.696624        -0.826887
