19
Iteration:  1105
 C        -2.962230        -1.586934         1.436813
 C        -1.732890        -0.599168         1.236505
 C        -1.953394         0.383660         0.015256
 C        -0.699193         1.172484        -0.044048
 C         0.324905        -0.003265         0.053862
 O         1.541595         0.117907         0.025402
 C        -0.637612        -1.193568         0.128660
 C        -0.192920        -2.564351         0.069284
 O        -1.754583        -0.890587        -0.821516
 H        -2.685908        -2.204157         2.285903
 H        -3.906937        -1.069365         1.603863
 H        -3.050157        -2.283285         0.593425
 H        -1.421438        -0.034012         2.152637
 H        -2.990964         0.880707        -0.093707
 H        -0.431396         1.871368        -0.855287
 H        -0.481508         1.652866         0.866152
 H         0.846256        -2.746730         0.449585
 H        -0.874113        -3.137259         0.669818
 H        -0.126886        -2.911803        -0.965089
