19
Iteration:  4619
 C        -3.029854        -1.548352         1.463685
 C        -1.671672        -0.661584         1.246839
 C        -1.901152         0.297628         0.049923
 C        -0.690548         1.100915        -0.112858
 C         0.282753        -0.025711         0.103011
 O         1.518297         0.112230         0.038733
 C        -0.736949        -1.228695         0.153266
 C        -0.214749        -2.593412         0.095982
 O        -1.656656        -0.691142        -0.907155
 H        -3.681371        -1.531007         0.547368
 H        -2.778131        -2.520636         1.889213
 H        -3.550543        -0.974750         2.269293
 H        -1.075661        -0.421561         2.182781
 H        -2.831591         0.786355        -0.030159
 H        -0.701729         1.494910        -1.152805
 H        -0.436677         2.002680         0.400748
 H         0.065488        -2.799396         1.160508
 H        -0.769961        -3.397058        -0.205305
 H         0.749449        -2.502643        -0.440099
