19
Iteration:  3203
 C        -2.949437        -1.657175         1.401273
 C        -1.688937        -0.645396         1.171685
 C        -1.889267         0.293913         0.039658
 C        -0.704609         1.215995        -0.119066
 C         0.289649         0.033783         0.066903
 O         1.472807         0.043205         0.006868
 C        -0.694660        -1.158031         0.251359
 C        -0.268659        -2.592902         0.243543
 O        -1.620791        -0.711277        -0.923136
 H        -3.322711        -2.000319         0.437557
 H        -2.475383        -2.423986         1.975593
 H        -3.737774        -1.167241         1.996283
 H        -1.391207        -0.120854         2.136092
 H        -2.931845         0.843595        -0.021569
 H        -0.624379         1.645422        -1.088385
 H        -0.682653         2.082959         0.497969
 H         0.833231        -2.835228         0.471143
 H        -0.801012        -3.130544         1.062578
 H        -0.394532        -3.121878        -0.747629
