19
Iteration:  3418charge 0 multiplicity 1
 C        -2.926712        -1.448539         1.564980
 C        -1.766825        -0.611953         1.196041
 C        -1.895436         0.258050        -0.028155
 C        -0.762625         1.174032        -0.031095
 C         0.271503         0.077592         0.089098
 O         1.481825        -0.054307         0.054603
 C        -0.705279        -1.195240         0.159308
 C        -0.105469        -2.551684         0.018407
 O        -1.647311        -0.829330        -0.894292
 H        -3.238557        -2.153629         0.766086
 H        -2.936530        -1.879943         2.572367
 H        -3.889485        -0.875563         1.522288
 H        -1.256293        -0.251983         2.102792
 H        -2.840693         0.762700        -0.203646
 H        -0.641284         1.824332        -1.007093
 H        -0.873467         2.036117         0.783923
 H         0.727932        -2.728161         0.705937
 H        -0.772219        -3.302274         0.265311
 H         0.290500        -2.764973        -0.969949
