19
Iteration:   223charge 0 multiplicity 1
 C        -2.989361        -1.683519         1.734664
 C        -1.922926        -0.656147         1.109061
 C        -2.020362         0.286982        -0.175195
 C        -0.787876         1.244143        -0.025409
 C         0.268778         0.001198         0.176183
 O         1.438002        -0.098994        -0.098329
 C        -0.627566        -1.144482         0.227147
 C        -0.035380        -2.497435         0.185785
 O        -1.461859        -0.666102        -1.021135
 H        -2.399082        -2.323115         2.418748
 H        -3.770305        -1.164744         2.284967
 H        -3.451740        -2.338815         0.976356
 H        -1.664068        -0.031798         2.030652
 H        -2.852494         0.980874        -0.559462
 H        -0.521157         1.871653        -0.745884
 H        -0.822897         2.077213         0.804734
 H         0.631747        -2.583803         1.096551
 H        -0.851085        -3.186878         0.146035
 H         0.690268        -2.710110        -0.615407
