19
Iteration:  3586charge 0 multiplicity 1
 C        -2.852658        -1.477670         1.552645
 C        -1.676175        -0.608033         1.237837
 C        -1.977755         0.338977        -0.017315
 C        -0.743244         1.111037        -0.124330
 C         0.319168         0.014516         0.064643
 O         1.517131         0.069557         0.223018
 C        -0.685137        -1.193238         0.116480
 C        -0.184546        -2.605536        -0.072033
 O        -1.764599        -0.856817        -0.843191
 H        -3.083947        -2.184904         0.745178
 H        -2.987426        -1.988566         2.539690
 H        -3.765693        -0.816676         1.537789
 H        -1.151095        -0.056156         2.015618
 H        -2.968377         0.846841        -0.287363
 H        -0.614748         1.479787        -1.109987
 H        -0.342427         1.989171         0.451295
 H         0.459227        -2.756714         0.780045
 H        -1.071240        -3.320063        -0.071418
 H         0.318604        -2.599730        -1.037083
