19
Iteration:  3551charge 0 multiplicity 1
 C        -2.953480        -1.474079         1.655261
 C        -1.720897        -0.680406         1.227557
 C        -1.993457         0.327418        -0.032348
 C        -0.743260         1.174047        -0.084532
 C         0.315269         0.014333         0.009534
 O         1.479534        -0.003073         0.140970
 C        -0.725209        -1.253146         0.145256
 C        -0.137359        -2.571966         0.015981
 O        -1.598565        -0.747630        -0.928660
 H        -3.140448        -2.008990         0.736726
 H        -2.824666        -2.198766         2.464878
 H        -3.794356        -0.747565         1.757192
 H        -1.568795        -0.097817         2.126337
 H        -2.924502         0.855187        -0.402036
 H        -0.744114         1.504644        -1.156936
 H        -0.409090         1.925642         0.755800
 H         0.847944        -2.602611         0.409155
 H        -0.756928        -3.327465         0.449547
 H        -0.047607        -2.767014        -1.048209
