19
Iteration:  1569
 C        -2.918532        -1.694835         1.611543
 C        -1.761872        -0.599956         1.178071
 C        -2.011896         0.415555         0.034762
 C        -0.668667         1.163519        -0.026004
 C         0.237197        -0.006698        -0.023365
 O         1.520913        -0.068105         0.023647
 C        -0.686797        -1.183528         0.231087
 C        -0.099287        -2.513572         0.092376
 O        -1.726199        -0.702378        -0.996730
 H        -2.582764        -2.051716         2.547898
 H        -3.868610        -1.192927         1.717728
 H        -3.000876        -2.604137         1.024156
 H        -1.499411        -0.057071         2.073944
 H        -2.978874         1.067583        -0.095488
 H        -0.420315         1.592040        -0.953748
 H        -0.455469         2.065561         0.590388
 H         0.875266        -2.565554         0.592147
 H        -0.753717        -3.201376         0.546898
 H         0.112966        -2.730859        -0.936231
