19
Iteration:  1570charge 0 multiplicity 1
 C        -2.916553        -1.689614         1.606076
 C        -1.763507        -0.600906         1.172552
 C        -2.007541         0.408043         0.033190
 C        -0.660181         1.173623        -0.017809
 C         0.230404        -0.012147        -0.030068
 O         1.514905        -0.060440         0.025263
 C        -0.680375        -1.182736         0.234387
 C        -0.112365        -2.521418         0.093277
 O        -1.723552        -0.704688        -0.993680
 H        -2.580361        -2.035904         2.559301
 H        -3.862750        -1.164511         1.709982
 H        -2.970612        -2.599360         1.002404
 H        -1.451380        -0.076857         2.112217
 H        -2.977332         1.040243        -0.086613
 H        -0.448060         1.586679        -0.975575
 H        -0.481559         2.064861         0.592830
 H         0.910949        -2.556819         0.573435
 H        -0.771027        -3.230954         0.571477
 H         0.116825        -2.723618        -0.944035
