19
Iteration:  2259charge 0 multiplicity 1
 C        -2.865792        -1.421392         1.593648
 C        -1.604495        -0.619203         1.247144
 C        -1.972480         0.314721        -0.014759
 C        -0.779972         1.151076        -0.152255
 C         0.309714         0.060433         0.090927
 O         1.451705         0.077454         0.238728
 C        -0.607427        -1.217716         0.081448
 C        -0.282143        -2.642049        -0.203979
 O        -1.669757        -0.863738        -0.784737
 H        -2.513047        -2.268660         2.249184
 H        -3.620786        -0.956144         2.264103
 H        -3.288623        -1.974703         0.737084
 H        -1.279786        -0.139301         2.179784
 H        -2.973152         0.865282        -0.364743
 H        -0.724805         1.652197        -1.182114
 H        -0.737442         1.940273         0.591879
 H         0.285388        -3.093846         0.699493
 H        -1.187976        -3.268580        -0.257408
 H         0.392949        -2.724958        -1.151390
