19
Iteration:  1449
 C        -2.776586        -1.544765         1.582389
 C        -1.713816        -0.622493         1.183940
 C        -2.014117         0.377026         0.052274
 C        -0.779441         1.210581        -0.055330
 C         0.284073         0.024207         0.060795
 O         1.469891        -0.004647         0.055098
 C        -0.712663        -1.145124         0.179341
 C        -0.258736        -2.586370         0.050941
 O        -1.600047        -0.843273        -0.977422
 H        -2.191700        -2.326070         2.042711
 H        -3.594501        -1.130292         2.165522
 H        -3.191177        -2.006403         0.686689
 H        -1.260070        -0.058764         2.051327
 H        -3.109775         0.785807        -0.006615
 H        -0.603415         1.630472        -0.996737
 H        -0.603906         2.005517         0.657320
 H         0.130730        -2.934922         1.048224
 H        -1.158336        -3.171828        -0.134702
 H         0.549814        -2.822593        -0.686018
