19
Iteration:  4879charge 0 multiplicity 1
 C        -2.906602        -1.567881         1.526333
 C        -1.784559        -0.580581         1.268629
 C        -1.949588         0.337987         0.059110
 C        -0.668789         1.154666        -0.132315
 C         0.277351        -0.029920        -0.015726
 O         1.501142         0.032836         0.151526
 C        -0.703838        -1.193385         0.246726
 C        -0.190851        -2.583591        -0.022563
 O        -1.637888        -0.766557        -0.912408
 H        -3.075105        -2.197901         0.621023
 H        -3.062696        -2.102912         2.528719
 H        -3.872806        -0.951499         1.602595
 H        -1.250152        -0.064576         2.140977
 H        -2.882120         0.798152        -0.169587
 H        -0.550671         1.562833        -1.169783
 H        -0.549122         2.046651         0.531150
 H         0.426030        -3.042455         0.845126
 H        -0.966686        -3.338287        -0.174519
 H         0.326411        -2.457346        -1.011168
