19
Iteration:  3255charge 0 multiplicity 1
 C        -2.900583        -1.495969         1.595773
 C        -1.784872        -0.588220         1.163296
 C        -2.047927         0.324660        -0.081607
 C        -0.656012         1.211142         0.032246
 C         0.271972        -0.010218         0.151271
 O         1.422324        -0.052822         0.067498
 C        -0.732659        -1.132835         0.214482
 C        -0.047130        -2.557244         0.061148
 O        -1.654743        -0.880219        -1.023612
 H        -3.159621        -2.198435         0.746115
 H        -2.576591        -1.966588         2.531994
 H        -3.814423        -0.812193         1.664737
 H        -1.194540        -0.022499         1.994847
 H        -2.875411         0.850846        -0.554931
 H        -0.488581         1.966947        -0.716305
 H        -0.600351         1.859648         0.888404
 H         1.045948        -2.563488         0.461800
 H        -0.594493        -3.441175         0.433567
 H        -0.033683        -2.806803        -1.066375
