19
Iteration:  2827
 C        -2.978839        -1.413556         1.656977
 C        -1.710204        -0.701248         1.209035
 C        -2.028981         0.357746        -0.034657
 C        -0.707247         1.201411        -0.120607
 C         0.268735        -0.010612         0.103416
 O         1.459792         0.053281         0.168054
 C        -0.667771        -1.230471         0.115833
 C        -0.158837        -2.584958        -0.024361
 O        -1.574068        -0.866924        -1.014190
 H        -3.520960        -1.766704         0.772339
 H        -2.727486        -2.327356         2.212719
 H        -3.515519        -0.783937         2.329644
 H        -1.353980        -0.165599         2.105668
 H        -3.007008         0.802413        -0.173642
 H        -0.557764         1.781126        -1.061112
 H        -0.545198         1.786441         0.866452
 H         0.274030        -2.653869         0.976598
 H        -0.951071        -3.383880        -0.080386
 H         0.761835        -2.732752        -0.557823
