19
Iteration:   146charge 0 multiplicity 1
 C        -2.903046        -1.638530         1.439281
 C        -1.707737        -0.621173         1.208285
 C        -1.918882         0.360877         0.125862
 C        -0.784336         1.125697        -0.298201
 C         0.313225         0.033963        -0.000068
 O         1.480948         0.161905         0.188231
 C        -0.750728        -1.230854         0.177775
 C        -0.179487        -2.560307         0.126880
 O        -1.620353        -0.809190        -0.868743
 H        -2.580763        -2.389300         2.170687
 H        -3.711830        -1.071228         1.924806
 H        -3.391840        -2.151510         0.611019
 H        -1.229255        -0.363751         2.183487
 H        -2.899223         0.896807         0.024096
 H        -0.879222         1.431954        -1.253612
 H        -0.433759         2.084342         0.192006
 H         0.182124        -2.823295         1.106009
 H        -0.934466        -3.315825        -0.023658
 H         0.512560        -2.611778        -0.674089
