19
Iteration:  3557charge 0 multiplicity 1
 C        -2.958711        -1.481001         1.611457
 C        -1.703196        -0.631901         1.230592
 C        -1.919570         0.318460        -0.028885
 C        -0.761136         1.186314        -0.072126
 C         0.262274         0.043561         0.005481
 O         1.473442         0.003343         0.161437
 C        -0.701055        -1.235970         0.171917
 C        -0.149556        -2.631910        -0.024392
 O        -1.622459        -0.783264        -0.912032
 H        -3.319239        -2.089976         0.729849
 H        -2.882314        -2.027522         2.567905
 H        -3.809337        -0.811123         1.698020
 H        -1.154370        -0.109144         2.122433
 H        -2.833286         0.784875        -0.308354
 H        -0.801578         1.516084        -1.145475
 H        -0.435774         1.956062         0.554967
 H         0.862055        -2.577582         0.512648
 H        -0.822788        -3.411304         0.419372
 H        -0.016995        -2.604915        -1.139342
