19
Iteration:   450charge 0 multiplicity 1
 C        -2.971326        -1.547003         1.454145
 C        -1.728071        -0.576507         1.200415
 C        -2.002895         0.311745         0.062754
 C        -0.707641         1.083536        -0.164216
 C         0.273329        -0.010939         0.048134
 O         1.479792         0.160503         0.086508
 C        -0.649385        -1.208035         0.247071
 C        -0.143659        -2.585168         0.109747
 O        -1.619296        -0.813040        -0.887071
 H        -2.538587        -2.316154         2.101353
 H        -3.746517        -0.954664         1.922281
 H        -3.253184        -1.903556         0.454252
 H        -1.395736        -0.105057         2.131179
 H        -3.009704         0.612239        -0.042239
 H        -0.747177         1.328525        -1.276892
 H        -0.525788         1.933571         0.508239
 H         0.711040        -2.789498         0.779086
 H        -0.931394        -3.236028         0.419628
 H         0.056917        -2.775240        -0.954413
