19
Iteration:  4834charge 0 multiplicity 1
 C        -2.775834        -1.495493         1.610302
 C        -1.678500        -0.629131         1.170788
 C        -1.951948         0.283104        -0.054504
 C        -0.705792         1.141360        -0.130730
 C         0.311226         0.005261        -0.015672
 O         1.450105         0.005231         0.340799
 C        -0.729464        -1.162975         0.025680
 C        -0.269988        -2.596240         0.093198
 O        -1.738100        -0.734148        -1.049442
 H        -3.398607        -1.945694         0.807202
 H        -2.177005        -2.375497         2.139159
 H        -3.407705        -1.194842         2.518242
 H        -1.144138        -0.073341         2.066600
 H        -2.838644         0.869174        -0.099467
 H        -0.806323         1.921514        -0.866006
 H        -0.453036         1.787528         0.710622
 H         0.133884        -2.768371         1.154444
 H        -1.039164        -3.298784        -0.077234
 H         0.566337        -2.847643        -0.684016
