19
Iteration:  2938
 C        -2.938012        -1.532577         1.472959
 C        -1.756940        -0.577651         1.224985
 C        -1.931007         0.312439        -0.034361
 C        -0.659307         1.198231        -0.030072
 C         0.314499        -0.018194         0.025469
 O         1.474922         0.090697         0.043273
 C        -0.672749        -1.180837         0.220791
 C        -0.214008        -2.621646         0.123678
 O        -1.626537        -0.893282        -0.928192
 H        -3.138633        -2.253502         0.680452
 H        -3.042756        -1.980649         2.451366
 H        -3.784081        -0.840669         1.500930
 H        -1.463178         0.017460         2.080577
 H        -2.829075         0.828653        -0.255123
 H        -0.710035         1.944421        -0.793887
 H        -0.786680         1.904358         0.937825
 H         0.839806        -2.715034         0.485085
 H        -0.860745        -3.314182         0.710843
 H        -0.271938        -2.751163        -0.957543
