19
Iteration:  4929charge 0 multiplicity 1
 C        -2.984209        -1.478791         1.454126
 C        -1.772205        -0.675023         1.195118
 C        -1.985200         0.364129         0.068819
 C        -0.705542         1.163466         0.021160
 C         0.257405        -0.012438         0.099572
 O         1.424873        -0.051339        -0.087850
 C        -0.700820        -1.220178         0.182142
 C        -0.083522        -2.567486         0.178928
 O        -1.562436        -0.696342        -0.961779
 H        -3.257102        -2.006348         0.570682
 H        -2.801399        -2.248033         2.224871
 H        -3.839654        -1.020848         1.915015
 H        -1.299786        -0.257955         2.084337
 H        -2.982570         0.640700        -0.321976
 H        -0.405876         1.888902        -0.826399
 H        -0.495010         1.801528         0.949022
 H         0.864264        -2.510956         0.691505
 H        -0.741509        -3.329700         0.725463
 H         0.077341        -2.916602        -0.898016
