19
Iteration:  2809
 C        -2.999427        -1.481933         1.660642
 C        -1.755094        -0.703718         1.161132
 C        -1.900518         0.284093         0.012247
 C        -0.707605         1.126479        -0.125784
 C         0.338932         0.054802         0.060904
 O         1.525867         0.155246         0.197503
 C        -0.749360        -1.286145         0.077370
 C        -0.195789        -2.651665         0.076449
 O        -1.642872        -0.730244        -0.990721
 H        -3.462689        -2.067429         0.845408
 H        -2.708739        -2.103245         2.510104
 H        -3.662286        -0.655544         2.031297
 H        -1.176495        -0.244227         2.005613
 H        -2.872492         0.714887        -0.162518
 H        -0.660653         1.301734        -1.165522
 H        -0.566206         2.118752         0.362499
 H         0.146755        -3.144686         0.975334
 H        -0.915885        -3.199306        -0.408325
 H         0.608708        -2.659561        -0.649865
