19
Iteration:  4652
 C        -2.949522        -1.604131         1.407403
 C        -1.704617        -0.603607         1.181786
 C        -1.902521         0.340349        -0.004820
 C        -0.705388         1.278243         0.026924
 C         0.255418         0.031795         0.009367
 O         1.499948        -0.038920        -0.016336
 C        -0.678791        -1.166338         0.180374
 C        -0.220782        -2.619363         0.200510
 O        -1.658077        -0.763411        -0.918212
 H        -3.654787        -1.991438         0.594753
 H        -2.535134        -2.500945         1.919505
 H        -3.570593        -1.142358         2.216849
 H        -1.309770        -0.089695         2.136595
 H        -2.850319         0.751575        -0.263743
 H        -0.760903         2.070593        -0.806321
 H        -0.566342         1.675590         1.090356
 H         0.336563        -2.655102         1.172902
 H        -1.008092        -3.300303         0.112180
 H         0.555524        -2.901993        -0.522067
