19
Iteration:  2018
 C        -2.752808        -1.554088         1.608507
 C        -1.603506        -0.640141         1.190066
 C        -1.983806         0.319488         0.054688
 C        -0.741288         1.202563        -0.056129
 C         0.341574        -0.005770        -0.012086
 O         1.523686         0.186952         0.163906
 C        -0.688466        -1.258266         0.120835
 C        -0.343316        -2.728707        -0.033629
 O        -1.772792        -0.738437        -0.914311
 H        -3.474264        -0.858705         2.056505
 H        -3.286394        -1.823375         0.740601
 H        -2.403188        -2.392981         2.206143
 H        -1.064267        -0.157682         2.082618
 H        -3.120076         0.720084        -0.076982
 H        -0.879982         1.786046        -1.055990
 H        -0.413381         1.862214         0.763423
 H        -0.186416        -3.413443         0.810410
 H        -1.187968        -3.160693        -0.604675
 H         0.492444        -2.791888        -0.653378
