19
Iteration:  2806
 C        -2.987153        -1.478129         1.642854
 C        -1.752954        -0.730425         1.173022
 C        -1.898570         0.281376        -0.016367
 C        -0.710742         1.128491        -0.130543
 C         0.360863         0.065860         0.049106
 O         1.521917         0.159917         0.203676
 C        -0.727841        -1.317171         0.107819
 C        -0.214307        -2.657992         0.058250
 O        -1.664603        -0.701240        -0.974555
 H        -3.372964        -2.150942         0.864860
 H        -2.690561        -2.043290         2.528081
 H        -3.595375        -0.678956         1.994445
 H        -1.351754        -0.154825         2.044659
 H        -2.836989         0.791141        -0.147315
 H        -0.708047         1.219386        -1.238504
 H        -0.565948         2.176722         0.387274
 H         0.133011        -3.097026         0.941593
 H        -1.007530        -3.263527        -0.404640
 H         0.679126        -2.677182        -0.518455
