19
Iteration:  1232charge 0 multiplicity 1
 C        -2.941208        -1.608138         1.565984
 C        -1.663657        -0.679914         1.193164
 C        -2.015872         0.339813         0.112260
 C        -0.732171         1.176072        -0.138203
 C         0.264595         0.051329         0.063416
 O         1.509270         0.076679         0.024500
 C        -0.672006        -1.200077         0.177871
 C        -0.225698        -2.608530         0.007090
 O        -1.575206        -0.749564        -0.844934
 H        -2.954639        -2.221421         2.498084
 H        -3.661087        -0.787263         1.806446
 H        -3.260033        -2.117032         0.643920
 H        -1.183554        -0.226603         2.045258
 H        -2.987086         0.526790        -0.152808
 H        -0.757773         1.624665        -1.160097
 H        -0.517472         2.189395         0.349756
 H        -0.392902        -2.923795         1.023155
 H        -0.957298        -3.201590        -0.589803
 H         0.795672        -2.780877        -0.386439
