19
Iteration:  3575
 C        -2.910632        -1.404662         1.553622
 C        -1.660420        -0.660885         1.223526
 C        -2.014474         0.328880         0.049772
 C        -0.669977         1.215931        -0.211321
 C         0.262867         0.004834         0.122207
 O         1.485100         0.054570         0.185386
 C        -0.686862        -1.236464         0.116874
 C        -0.140339        -2.598990        -0.061359
 O        -1.700756        -0.865820        -0.867959
 H        -2.992877        -2.187556         0.776093
 H        -2.692089        -1.912831         2.534042
 H        -3.833860        -0.771106         1.514880
 H        -1.495782        -0.195642         2.157877
 H        -3.095095         0.737311         0.019870
 H        -0.455795         1.641288        -1.141617
 H        -0.683082         1.842539         0.709922
 H         0.656831        -2.976231         0.563671
 H        -1.065808        -3.264349         0.095470
 H         0.177707        -2.756984        -1.097693
