19
Iteration:  3265
 C        -2.935296        -1.452650         1.582318
 C        -1.740134        -0.555992         1.162403
 C        -2.023634         0.350160        -0.114442
 C        -0.765475         1.236105         0.015913
 C         0.232072        -0.026085         0.092536
 O         1.508880        -0.063237         0.104317
 C        -0.733337        -1.233993         0.168426
 C        -0.022088        -2.564450         0.006363
 O        -1.627344        -0.847379        -0.914925
 H        -3.130417        -2.243404         0.804603
 H        -2.821035        -2.110975         2.462944
 H        -3.878062        -0.906484         1.890175
 H        -1.382864         0.158840         1.948198
 H        -3.014177         0.699363        -0.250440
 H        -0.475610         1.678900        -0.943182
 H        -0.702997         1.795218         0.960040
 H         0.946393        -2.596346         0.569912
 H        -0.704086        -3.289489         0.388932
 H         0.142788        -2.696540        -1.098600
