19
Iteration:  3158
 C        -2.987695        -1.528287         1.485746
 C        -1.824049        -0.656007         1.220393
 C        -1.952452         0.366043        -0.059121
 C        -0.743010         1.193872        -0.078566
 C         0.296838        -0.013301         0.062717
 O         1.517738         0.004721         0.037254
 C        -0.649210        -1.173803         0.215352
 C        -0.089510        -2.572158         0.159106
 O        -1.660065        -0.799533        -0.877869
 H        -3.551278        -1.728570         0.560928
 H        -2.707271        -2.422847         1.998731
 H        -3.744895        -0.963210         2.086707
 H        -1.244433        -0.313995         2.115763
 H        -2.938831         0.814307        -0.449647
 H        -0.685260         1.724714        -0.971526
 H        -0.458895         1.920262         0.593945
 H         1.054358        -2.613612         0.400128
 H        -0.666093        -3.300693         0.741912
 H        -0.161053        -2.836118        -0.965640
