19
Iteration:  4934charge 0 multiplicity 1
 C        -2.970660        -1.481061         1.451296
 C        -1.810271        -0.676085         1.197213
 C        -1.972247         0.341324         0.078931
 C        -0.705763         1.153361         0.000354
 C         0.217184        -0.033336         0.059131
 O         1.437215        -0.046480        -0.088539
 C        -0.722822        -1.198411         0.165565
 C        -0.091728        -2.577361         0.197433
 O        -1.524652        -0.666922        -0.948395
 H        -3.360603        -2.015621         0.529112
 H        -2.641936        -2.311794         2.156685
 H        -3.813120        -0.914841         1.965142
 H        -1.284958        -0.338205         2.137748
 H        -2.959268         0.692253        -0.209038
 H        -0.417716         1.955042        -0.629997
 H        -0.554632         1.698556         0.914033
 H         0.928793        -2.435106         0.630782
 H        -0.763758        -3.213789         0.732487
 H         0.169886        -3.080742        -0.718848
