19
Iteration:  1760charge 0 multiplicity 1
 C        -2.788494        -1.488789         1.620925
 C        -1.670914        -0.620241         1.220163
 C        -2.006254         0.308439        -0.036275
 C        -0.795080         1.124941        -0.116055
 C         0.290013         0.063234        -0.007957
 O         1.534036         0.137198         0.101516
 C        -0.645203        -1.203814         0.268904
 C        -0.372999        -2.649045        -0.062305
 O        -1.628998        -0.836668        -0.856049
 H        -2.850072        -1.958808         2.638959
 H        -3.794846        -1.013519         1.554889
 H        -2.868910        -2.347870         0.901768
 H        -1.099046        -0.252753         2.153988
 H        -2.925589         0.749122        -0.271145
 H        -0.482303         1.729944        -0.998193
 H        -0.656505         1.841287         0.652753
 H        -0.032652        -3.302843         0.816419
 H        -1.287131        -3.049987        -0.617341
 H         0.616327        -2.654965        -0.678377
