19
Iteration:  4348charge 0 multiplicity 1
 C        -2.933041        -1.555589         1.516424
 C        -1.733492        -0.686877         1.210580
 C        -2.016566         0.344081         0.052206
 C        -0.730306         1.237998        -0.029061
 C         0.310869        -0.002642         0.031756
 O         1.541196         0.057595        -0.012561
 C        -0.644937        -1.173299         0.153326
 C        -0.280753        -2.597544         0.114153
 O        -1.617123        -0.807935        -0.914865
 H        -3.358102        -1.806155         0.575251
 H        -2.595459        -2.344348         2.117544
 H        -3.613204        -1.044431         2.091874
 H        -1.297171        -0.222038         2.096956
 H        -2.969033         0.791756        -0.252654
 H        -0.489911         1.730017        -0.929826
 H        -0.436724         1.872919         0.830589
 H        -0.093332        -2.786099         1.168736
 H        -1.028828        -3.122457        -0.392829
 H         0.667136        -2.896298        -0.337749
