19
Iteration:  3651
 C        -2.739520        -1.616692         1.638937
 C        -1.734260        -0.526308         1.124180
 C        -2.042383         0.352740        -0.070905
 C        -0.736068         1.219812        -0.077763
 C         0.286880        -0.000668         0.092400
 O         1.513687        -0.069950         0.176536
 C        -0.734209        -1.134840         0.121048
 C        -0.235365        -2.556637         0.119057
 O        -1.690169        -0.798275        -1.060054
 H        -3.476523        -1.651958         0.858787
 H        -2.184867        -2.522783         1.875745
 H        -3.284619        -1.237532         2.496176
 H        -1.185824        -0.160327         2.019475
 H        -2.991686         0.907541        -0.378535
 H        -0.823501         1.768840        -0.978462
 H        -0.440969         1.672273         0.976101
 H         0.084370        -2.724144         1.114908
 H        -1.036310        -3.324212         0.019353
 H         0.609661        -2.724553        -0.512082
