19
Iteration:  1838charge 0 multiplicity 1
 C        -2.838243        -1.585899         1.471540
 C        -1.707341        -0.602847         1.188703
 C        -2.010436         0.405433        -0.052009
 C        -0.699761         1.194411        -0.041280
 C         0.233455        -0.014622         0.104748
 O         1.445311        -0.040213        -0.042126
 C        -0.748923        -1.207110         0.195345
 C        -0.050434        -2.536294         0.156894
 O        -1.720693        -0.768697        -0.847140
 H        -2.605950        -2.650761         1.586035
 H        -3.306756        -1.311405         2.463618
 H        -3.689916        -1.413031         0.770059
 H        -1.218345        -0.238506         2.141410
 H        -2.879103         0.848800        -0.377016
 H        -0.547073         1.741960        -0.942024
 H        -0.567431         1.906463         0.771914
 H         0.963316        -2.656914         0.593492
 H        -0.717290        -3.297883         0.619072
 H         0.058772        -2.862166        -0.961229
