19
Iteration:  4537
 C        -2.847820        -1.611217         1.707232
 C        -1.710767        -0.673497         1.144511
 C        -2.038067         0.347543        -0.025815
 C        -0.655715         1.239209        -0.164449
 C         0.286689         0.075002         0.018999
 O         1.485829        -0.045998         0.267962
 C        -0.801833        -1.205254         0.055110
 C        -0.190063        -2.659503         0.051672
 O        -1.640735        -0.620591        -1.043733
 H        -3.099240        -2.442328         1.075008
 H        -2.398820        -2.115051         2.572810
 H        -3.730774        -1.075406         1.972006
 H        -1.103189        -0.294247         1.974142
 H        -2.995290         0.919372        -0.232200
 H        -0.774276         1.810254        -1.126613
 H        -0.459296         1.761210         0.900765
 H         0.537240        -2.654339         0.875205
 H        -1.069883        -3.328338         0.505140
 H         0.290681        -3.096025        -0.832167
