19
Iteration:   224
 C        -2.988907        -1.681354         1.732939
 C        -1.927121        -0.650523         1.099203
 C        -2.039552         0.289813        -0.167192
 C        -0.794383         1.242446        -0.026074
 C         0.281264        -0.004522         0.186313
 O         1.450327        -0.100345        -0.102278
 C        -0.631980        -1.149959         0.235522
 C        -0.038975        -2.494705         0.187376
 O        -1.463839        -0.671136        -1.028644
 H        -2.368682        -2.296808         2.433265
 H        -3.777855        -1.157093         2.282423
 H        -3.423509        -2.358947         0.960250
 H        -1.679327        -0.037989         2.046588
 H        -2.844007         0.989292        -0.546756
 H        -0.504875         1.897442        -0.756515
 H        -0.804109         2.067475         0.830441
 H         0.661959        -2.543066         1.054814
 H        -0.843132        -3.177620         0.136663
 H         0.705953        -2.696284        -0.610900
