19
Iteration:  3861
 C        -2.916525        -1.472921         1.563482
 C        -1.631290        -0.704642         1.240841
 C        -1.970608         0.337021         0.050637
 C        -0.724552         1.118942        -0.202274
 C         0.247796         0.031498         0.105992
 O         1.499937         0.042690         0.199915
 C        -0.746306        -1.223817         0.066011
 C        -0.147735        -2.614565        -0.016872
 O        -1.689194        -0.731855        -0.903161
 H        -3.785448        -1.597118         0.858073
 H        -2.688877        -2.497073         1.957591
 H        -3.430992        -1.147065         2.469669
 H        -1.314484        -0.017335         2.182253
 H        -2.883279         0.904691        -0.108414
 H        -0.841877         1.359609        -1.297002
 H        -0.431264         2.064059         0.338773
 H         0.450821        -2.760357         0.908146
 H        -0.847441        -3.382063        -0.257410
 H         0.700734        -2.598123        -0.763751
