19
Iteration:  3808
 C        -2.860824        -1.540125         1.594609
 C        -1.729587        -0.618471         1.184825
 C        -2.005177         0.324816        -0.043346
 C        -0.722360         1.179732         0.013841
 C         0.270720        -0.010149         0.103506
 O         1.517770         0.047382         0.026076
 C        -0.717852        -1.207160         0.165477
 C        -0.217002        -2.635806         0.103323
 O        -1.636054        -0.724524        -0.978307
 H        -3.272012        -2.013918         0.619364
 H        -2.299075        -2.448066         2.002264
 H        -3.840400        -1.282503         2.087236
 H        -1.484962         0.089109         2.087647
 H        -2.962879         0.790274        -0.188963
 H        -0.398373         1.587427        -0.971758
 H        -0.525919         1.956503         0.713501
 H         0.652491        -2.808037         0.803996
 H        -1.150809        -3.129010         0.263802
 H         0.189799        -2.857461        -0.923572
