19
Iteration:  2042charge 0 multiplicity 1
 C        -2.804489        -1.659965         1.693770
 C        -1.628181        -0.674221         1.231639
 C        -1.943037         0.388128         0.038279
 C        -0.756548         1.189027        -0.040068
 C         0.211156         0.025357         0.068296
 O         1.451633         0.004411         0.059780
 C        -0.703438        -1.148090         0.044597
 C        -0.303714        -2.592285        -0.056342
 O        -1.615336        -0.693675        -0.930178
 H        -3.705398        -1.065641         1.691018
 H        -3.043191        -2.497118         1.039900
 H        -2.448244        -1.989064         2.673019
 H        -1.153410        -0.234059         2.162825
 H        -3.046052         0.831210        -0.166310
 H        -0.559222         1.583089        -1.129306
 H        -0.476216         1.977828         0.699264
 H        -0.116003        -2.974091         0.924858
 H        -1.080653        -3.220561        -0.398058
 H         0.615763        -2.753285        -0.609826
