19
Iteration:  3939
 C        -2.786722        -1.611095         1.628579
 C        -1.748233        -0.651413         1.171792
 C        -1.985406         0.392748        -0.070743
 C        -0.673247         1.183693        -0.049340
 C         0.244596        -0.001951         0.071572
 O         1.471490         0.051816         0.159129
 C        -0.675470        -1.212760         0.088968
 C        -0.289503        -2.608990         0.056074
 O        -1.617012        -0.695306        -0.970407
 H        -3.061633        -2.460788         0.988638
 H        -2.699927        -2.145003         2.614364
 H        -3.774950        -1.199276         1.904517
 H        -1.140833        -0.252645         1.933838
 H        -2.879523         0.952966        -0.218048
 H        -0.624894         1.479653        -1.148562
 H        -0.659729         2.056162         0.600929
 H         0.458296        -2.864624         0.836664
 H        -1.063728        -3.291175         0.392604
 H        -0.024328        -2.894076        -0.963736
