19
Iteration:  2736charge 0 multiplicity 1
 C        -2.854586        -1.658648         1.606815
 C        -1.808195        -0.610629         1.151694
 C        -1.941102         0.403860        -0.044429
 C        -0.704512         1.258634        -0.085692
 C         0.275293        -0.037677         0.016165
 O         1.487059        -0.114906         0.181616
 C        -0.753679        -1.139175         0.109660
 C        -0.146240        -2.540245         0.167310
 O        -1.682215        -0.721933        -1.004032
 H        -3.116438        -2.235455         0.731380
 H        -2.333325        -2.326159         2.300307
 H        -3.659782        -1.171763         2.141967
 H        -1.389912        -0.100734         2.042768
 H        -2.823936         0.995206        -0.374959
 H        -0.689119         1.503393        -1.181688
 H        -0.774940         2.171120         0.423157
 H         0.275667        -2.634611         1.204859
 H        -0.830871        -3.345977        -0.172579
 H         0.886121        -2.619785        -0.290598
