19
Iteration:  1048
 C        -2.950321        -1.569366         1.704613
 C        -1.778081        -0.715094         1.180755
 C        -2.013104         0.290505        -0.059816
 C        -0.741279         1.184693        -0.029177
 C         0.294617         0.095937         0.069553
 O         1.496809         0.002233         0.111985
 C        -0.723423        -1.194782         0.131367
 C        -0.151826        -2.538809         0.040668
 O        -1.514329        -0.717158        -1.045321
 H        -2.528336        -2.374334         2.386169
 H        -3.592096        -1.026623         2.430611
 H        -3.659143        -2.035690         1.021684
 H        -1.464864        -0.060877         2.056290
 H        -2.973144         0.773590        -0.243707
 H        -0.502705         1.384662        -1.165161
 H        -0.625533         1.975930         0.566491
 H         0.898929        -2.614251         0.148738
 H        -0.657103        -3.191424         0.791981
 H        -0.618413        -3.064817        -0.795291
