19
Iteration:  3537charge 0 multiplicity 1
 C        -2.955354        -1.545036         1.609799
 C        -1.824323        -0.597629         1.185830
 C        -2.041638         0.301115        -0.000135
 C        -0.662554         1.150369        -0.105931
 C         0.303690        -0.034701         0.104841
 O         1.514595        -0.021005         0.085292
 C        -0.716426        -1.139820         0.131197
 C        -0.122235        -2.568946         0.064933
 O        -1.615455        -0.742973        -0.987509
 H        -3.544347        -2.067656         0.854156
 H        -2.570031        -2.166843         2.394557
 H        -3.708939        -0.994547         2.157985
 H        -1.130988        -0.198831         1.985009
 H        -3.024639         0.667386        -0.115020
 H        -0.418530         1.867588        -0.996029
 H        -0.651957         1.871027         0.770484
 H         0.904694        -2.469819         0.471015
 H        -0.669374        -3.194044         0.720468
 H        -0.116623        -2.915637        -0.973648
