19
Iteration:  2208
 C        -2.844224        -1.605618         1.707596
 C        -1.734539        -0.674738         1.175096
 C        -2.009159         0.374544         0.064420
 C        -0.617766         1.258313        -0.057253
 C         0.208512        -0.007610         0.094314
 O         1.425423        -0.132062         0.105603
 C        -0.803352        -1.203188        -0.045160
 C        -0.027266        -2.516023         0.055536
 O        -1.712931        -0.670796        -1.015419
 H        -2.948394        -1.691133         2.752445
 H        -3.876646        -1.278891         1.503429
 H        -2.737794        -2.587161         1.308320
 H        -1.277627        -0.106549         2.046743
 H        -3.017804         0.813018        -0.146900
 H        -0.510508         1.580202        -1.060419
 H        -0.428351         2.056467         0.736727
 H         0.892318        -2.387952         0.532287
 H        -0.578300        -3.226107         0.600526
 H         0.238606        -2.874996        -0.931370
