19
Iteration:  1082charge 0 multiplicity 1
 C        -2.926484        -1.459192         1.515724
 C        -1.695624        -0.627836         1.278842
 C        -1.984507         0.290286         0.004342
 C        -0.790526         1.163613         0.010161
 C         0.293373         0.028932         0.024991
 O         1.523857         0.192543         0.054672
 C        -0.720673        -1.241366         0.185234
 C        -0.220534        -2.762005         0.004654
 O        -1.573088        -0.798055        -0.916748
 H        -2.724505        -2.105541         2.397364
 H        -3.742472        -0.760738         1.671350
 H        -3.075056        -2.128792         0.662723
 H        -1.333438         0.049903         2.103224
 H        -3.014570         0.669881        -0.311207
 H        -0.439484         1.756431        -0.906020
 H        -0.747029         1.845410         0.780492
 H         0.847841        -3.007205         0.114219
 H        -0.764926        -3.331254         0.753421
 H        -0.445182        -3.044341        -1.031913
