19
Iteration:  4410
 C        -2.825695        -1.571307         1.553657
 C        -1.768481        -0.595725         1.203867
 C        -1.942234         0.364264        -0.092167
 C        -0.713841         1.192574         0.061937
 C         0.259383         0.008694        -0.014019
 O         1.525630        -0.068558         0.025359
 C        -0.739058        -1.147564         0.208968
 C        -0.197698        -2.507465         0.105610
 O        -1.693408        -0.801824        -0.950825
 H        -3.094130        -2.164011         0.592528
 H        -2.673479        -2.438181         2.329023
 H        -3.879863        -1.003481         1.819485
 H        -1.354029        -0.223929         2.175630
 H        -2.935398         0.848968        -0.367642
 H        -0.454306         1.927855        -0.832997
 H        -0.468452         1.646122         1.108929
 H         0.300514        -2.788555         1.100255
 H        -0.980611        -3.315212         0.024685
 H         0.584324        -2.524432        -0.756562
