19
Iteration:  2258
 C        -2.869879        -1.419356         1.593293
 C        -1.610452        -0.618531         1.253933
 C        -1.974931         0.314098        -0.018222
 C        -0.771431         1.160239        -0.149752
 C         0.303896         0.062566         0.087920
 O         1.451002         0.070490         0.238591
 C        -0.603089        -1.227578         0.075751
 C        -0.277450        -2.633029        -0.212455
 O        -1.668139        -0.865695        -0.781417
 H        -2.510177        -2.261005         2.304008
 H        -3.633140        -0.957373         2.246481
 H        -3.274121        -2.006691         0.726600
 H        -1.281028        -0.123428         2.164829
 H        -2.948867         0.828119        -0.333546
 H        -0.731955         1.660692        -1.190256
 H        -0.750183         1.920579         0.597262
 H         0.292434        -3.037884         0.719314
 H        -1.202077        -3.266880        -0.234398
 H         0.386154        -2.732407        -1.145487
