19
Iteration:  3046
 C        -2.831784        -1.653343         1.512887
 C        -1.680900        -0.598921         1.223014
 C        -1.925037         0.386991         0.037764
 C        -0.709643         1.198585        -0.283254
 C         0.306677         0.042165        -0.067718
 O         1.449386         0.088594         0.267781
 C        -0.695272        -1.143369         0.170637
 C        -0.311182        -2.660911         0.155692
 O        -1.642451        -0.768825        -0.913661
 H        -3.441213        -1.844969         0.601442
 H        -2.560342        -2.609347         2.020475
 H        -3.639081        -1.162230         2.066702
 H        -1.135531        -0.308709         2.163299
 H        -2.862986         0.858999        -0.029707
 H        -0.807504         1.167138        -1.321708
 H        -0.476077         2.057157         0.216971
 H        -0.162064        -3.004363         1.268656
 H        -1.050209        -3.279863        -0.458316
 H         0.621930        -2.874213        -0.449877
