19
Iteration:  4592
 C        -3.002215        -1.552203         1.535286
 C        -1.688793        -0.532724         1.221243
 C        -1.982697         0.376914        -0.025403
 C        -0.745839         1.193681        -0.111173
 C         0.297576         0.052324         0.028387
 O         1.490374        -0.064742         0.154780
 C        -0.659210        -1.156064         0.196904
 C        -0.123856        -2.616595        -0.026341
 O        -1.657656        -0.835583        -0.837369
 H        -3.475001        -1.984817         0.671655
 H        -2.563541        -2.417228         2.067899
 H        -3.666087        -0.962216         2.132539
 H        -1.118395        -0.193385         2.074238
 H        -2.973129         0.872947        -0.301358
 H        -0.789070         1.779953        -1.094931
 H        -0.429262         2.081907         0.606262
 H         0.133110        -3.262998         0.817341
 H        -1.063705        -3.242347        -0.403264
 H         0.712595        -2.491922        -0.742450
