19
Iteration:  3631
 C        -2.760077        -1.621338         1.634167
 C        -1.678804        -0.616586         1.163842
 C        -2.014044         0.354363        -0.059972
 C        -0.659016         1.217697        -0.139266
 C         0.247676        -0.007162         0.046474
 O         1.429316        -0.066063         0.210689
 C        -0.729695        -1.164525         0.064200
 C        -0.231546        -2.572098         0.120120
 O        -1.653626        -0.695357        -0.966008
 H        -3.420222        -2.050948         0.817863
 H        -2.191500        -2.429663         2.209330
 H        -3.433952        -1.169812         2.413134
 H        -1.355890        -0.142023         2.062524
 H        -3.004561         0.861643        -0.271397
 H        -0.508582         1.454045        -1.182539
 H        -0.905968         2.109355         0.435237
 H         0.075077        -2.753873         1.177897
 H        -1.107713        -3.244642        -0.172416
 H         0.578389        -2.573971        -0.634284
