19
Iteration:  3635charge 0 multiplicity 1
 C        -2.744614        -1.588689         1.627333
 C        -1.716672        -0.626483         1.177212
 C        -1.986817         0.333822        -0.054426
 C        -0.695156         1.199010        -0.136356
 C         0.231146         0.003405         0.064474
 O         1.460515        -0.076300         0.204397
 C        -0.736923        -1.164869         0.052311
 C        -0.239709        -2.562240         0.136988
 O        -1.662651        -0.698634        -0.993633
 H        -3.373339        -2.076947         0.861062
 H        -2.208677        -2.450999         2.076475
 H        -3.372492        -1.293615         2.481664
 H        -1.321915         0.016469         2.005657
 H        -2.962513         0.750746        -0.142140
 H        -0.365328         1.641998        -1.141252
 H        -0.842285         2.096272         0.429919
 H         0.074326        -2.701368         1.213422
 H        -1.064251        -3.168379        -0.195090
 H         0.563157        -2.582507        -0.648463
