19
Iteration:  4418charge 0 multiplicity 1
 C        -2.901215        -1.616034         1.524814
 C        -1.712774        -0.575836         1.199350
 C        -2.024055         0.408077        -0.097060
 C        -0.676151         1.229158         0.035970
 C         0.286005        -0.059625        -0.033827
 O         1.462112        -0.077005         0.053098
 C        -0.740708        -1.167051         0.177601
 C        -0.102088        -2.538544         0.131226
 O        -1.679573        -0.765678        -0.915930
 H        -3.307320        -2.002197         0.597869
 H        -2.684593        -2.303065         2.350809
 H        -3.639055        -0.907988         1.937558
 H        -1.229969        -0.077921         2.110672
 H        -3.097391         0.653605        -0.182411
 H        -0.494444         2.005119        -0.770228
 H        -0.486335         1.487575         1.028807
 H         0.550255        -2.624146         0.970663
 H        -0.951106        -3.247887        -0.030123
 H         0.498243        -2.703061        -0.744660
