19
Iteration:  4400charge 0 multiplicity 1
 C        -2.853739        -1.583756         1.525678
 C        -1.793835        -0.593507         1.201638
 C        -1.963712         0.305789        -0.005828
 C        -0.655101         1.169328         0.024801
 C         0.329424         0.040165         0.096841
 O         1.492250        -0.043150        -0.023998
 C        -0.719845        -1.147625         0.157917
 C        -0.269186        -2.534120         0.118156
 O        -1.659588        -0.798422        -0.951543
 H        -2.989020        -2.281984         0.639845
 H        -2.362548        -2.167992         2.410548
 H        -3.916053        -1.167301         1.874048
 H        -1.379315        -0.022781         2.038555
 H        -2.764813         1.000903        -0.357236
 H        -0.568328         1.928298        -0.852646
 H        -0.763670         1.929834         0.913584
 H         0.230833        -2.833400         1.104382
 H        -1.063881        -3.252858        -0.206712
 H         0.594951        -2.585871        -0.664716
