19
Iteration:  1617
 C        -2.908363        -1.463953         1.508696
 C        -1.724790        -0.695140         1.183544
 C        -1.938489         0.218297         0.067772
 C        -0.746934         1.173690        -0.040008
 C         0.363186         0.081660         0.035442
 O         1.531097         0.172349         0.021477
 C        -0.652549        -1.234049         0.147194
 C        -0.258289        -2.657840         0.106396
 O        -1.683696        -0.801813        -0.869879
 H        -2.694082        -2.384921         2.143807
 H        -3.660681        -0.773920         1.980214
 H        -3.342303        -1.904879         0.581670
 H        -1.376312        -0.160935         2.170296
 H        -2.857474         0.652677        -0.204783
 H        -0.814030         1.789235        -0.987047
 H        -0.405499         1.888322         0.660275
 H         0.775944        -3.116666         0.221910
 H        -1.096063        -3.252422         0.638087
 H        -0.457450        -2.772797        -1.010128
