19
Iteration:  2453
 C        -2.833105        -1.737392         1.575248
 C        -1.830423        -0.645840         1.189062
 C        -2.012626         0.403685        -0.088275
 C        -0.631048         1.225239        -0.098557
 C         0.231639        -0.014829         0.091077
 O         1.480788        -0.077015         0.009293
 C        -0.764150        -1.124536         0.256327
 C        -0.162640        -2.517737         0.228991
 O        -1.617851        -0.684648        -1.001755
 H        -3.449873        -1.935110         0.667921
 H        -2.376018        -2.716831         1.868297
 H        -3.537636        -1.424076         2.377488
 H        -1.296853         0.020471         1.935817
 H        -2.888572         0.905728        -0.406930
 H        -0.619604         1.818357        -1.086579
 H        -0.538872         1.917239         0.747487
 H         0.621441        -2.520573         1.008661
 H        -0.800553        -3.343129         0.399283
 H         0.334041        -2.637120        -0.756317
