19
Iteration:  3104
 C        -2.895777        -1.500169         1.662933
 C        -1.798608        -0.526265         1.108052
 C        -1.998822         0.285645        -0.124969
 C        -0.699717         1.188202        -0.072410
 C         0.276794        -0.008220         0.098419
 O         1.466366        -0.022389         0.172184
 C        -0.688899        -1.161513         0.116857
 C        -0.124602        -2.590051         0.030740
 O        -1.660450        -0.838326        -0.977688
 H        -3.241739        -2.209956         0.930199
 H        -2.542616        -1.966413         2.537069
 H        -3.656913        -0.796729         2.024669
 H        -1.296433        -0.065980         1.966351
 H        -3.073717         0.697984        -0.212708
 H        -0.503074         1.982716        -0.738917
 H        -0.567641         1.721040         0.919569
 H         0.477350        -2.776319         0.935543
 H        -0.799908        -3.408743         0.129205
 H         0.690753        -2.700504        -0.720566
