19
Iteration:  2384
 C        -3.094300        -1.502143         1.535442
 C        -1.778837        -0.729091         1.224771
 C        -1.994238         0.335540         0.096965
 C        -0.759494         1.131942        -0.058907
 C         0.319471         0.015446         0.083960
 O         1.539724         0.126829        -0.079308
 C        -0.628511        -1.241819         0.183186
 C        -0.144277        -2.574773         0.058997
 O        -1.534330        -0.767013        -0.868179
 H        -3.137924        -2.439552         0.997005
 H        -3.446138        -1.630901         2.498059
 H        -3.883872        -0.918304         1.080651
 H        -1.304858        -0.293969         2.126394
 H        -3.058753         0.587060        -0.074527
 H        -0.711070         1.539420        -1.061200
 H        -0.240780         1.947068         0.506649
 H         0.600845        -2.632288         0.837681
 H        -0.939359        -3.315158         0.335378
 H         0.235594        -2.857721        -0.853842
