19
Iteration:   668charge 0 multiplicity 1
 C        -2.819777        -1.433845         1.664870
 C        -1.733897        -0.597567         1.133879
 C        -2.022516         0.193758        -0.067435
 C        -0.735847         1.096298        -0.184639
 C         0.304799         0.069157         0.055666
 O         1.482149         0.120935         0.347092
 C        -0.635818        -1.181456         0.007377
 C        -0.205490        -2.583566         0.054197
 O        -1.693159        -0.875479        -0.972804
 H        -2.469519        -2.505615         1.688901
 H        -3.107107        -1.093209         2.664591
 H        -3.633994        -1.451242         0.916682
 H        -1.218229        -0.088927         1.982965
 H        -2.990514         0.625998        -0.256839
 H        -0.715729         1.727424        -1.061015
 H        -0.692957         1.650769         0.720524
 H         0.571572        -2.494968         0.789728
 H        -1.065264        -3.238713         0.298853
 H         0.110258        -2.852008        -0.972473
