19
Iteration:  2243charge 0 multiplicity 1
 C        -2.854469        -1.498061         1.675892
 C        -1.724988        -0.567893         1.258019
 C        -1.974744         0.249461         0.052030
 C        -0.704037         1.230724        -0.127677
 C         0.297341        -0.006379         0.016585
 O         1.466573         0.017969         0.238817
 C        -0.710491        -1.154958         0.081228
 C        -0.149672        -2.592278        -0.147796
 O        -1.719114        -0.846685        -0.924350
 H        -2.745170        -2.097465         2.612785
 H        -3.675247        -0.775966         1.655209
 H        -3.146547        -2.113361         0.801009
 H        -1.160620        -0.116265         2.088519
 H        -2.941934         0.588103        -0.014817
 H        -0.541512         1.713649        -1.068771
 H        -0.497216         2.000684         0.663628
 H         0.603800        -2.954299         0.533759
 H        -1.030368        -3.269953        -0.146308
 H         0.255019        -2.684072        -1.123799
