19
Iteration:  4355charge 0 multiplicity 1
 C        -2.933309        -1.597397         1.534376
 C        -1.724683        -0.630652         1.222500
 C        -1.910542         0.298391         0.075076
 C        -0.721368         1.196404        -0.083146
 C         0.268273         0.044781         0.012347
 O         1.522991         0.058172        -0.014396
 C        -0.711724        -1.168995         0.170401
 C        -0.304257        -2.590136         0.135904
 O        -1.545854        -0.754480        -0.947734
 H        -3.451275        -2.060000         0.621954
 H        -2.649481        -2.503932         2.203613
 H        -3.855263        -1.037053         2.073084
 H        -1.332114        -0.267768         2.179850
 H        -2.985993         0.592958         0.041503
 H        -0.554111         1.936973        -0.978500
 H        -0.398378         1.894045         0.777494
 H        -0.247789        -3.072103         1.170387
 H        -1.144773        -3.213235        -0.335966
 H         0.674066        -2.791036        -0.450022
