19
Iteration:  4360charge 0 multiplicity 1
 C        -2.949650        -1.624322         1.548528
 C        -1.721135        -0.625359         1.240819
 C        -1.888313         0.293195         0.065315
 C        -0.681314         1.193314        -0.109735
 C         0.303577         0.070514         0.002769
 O         1.467467         0.056207        -0.016575
 C        -0.738264        -1.178973         0.192829
 C        -0.313198        -2.620016         0.150357
 O        -1.514727        -0.707760        -0.960885
 H        -3.355595        -2.163852         0.728457
 H        -2.696127        -2.426202         2.165028
 H        -3.715945        -1.114140         1.963492
 H        -1.315027        -0.253981         2.191655
 H        -2.915111         0.611324         0.064269
 H        -0.774530         1.798265        -0.951343
 H        -0.539916         1.836253         0.757378
 H        -0.281920        -3.161792         1.069950
 H        -1.112425        -3.164332        -0.276433
 H         0.561116        -2.668301        -0.444839
