19
Iteration:  2561charge 0 multiplicity 1
 C        -2.939505        -1.557890         1.690224
 C        -1.714688        -0.658932         1.189062
 C        -2.051211         0.329125         0.029633
 C        -0.701488         1.171540        -0.101986
 C         0.298421         0.022020         0.071181
 O         1.481623         0.047690         0.188782
 C        -0.663859        -1.147978         0.097964
 C        -0.233337        -2.568233        -0.005884
 O        -1.555259        -0.806817        -1.016527
 H        -3.196980        -2.276205         0.930455
 H        -2.753701        -1.971631         2.674349
 H        -3.747178        -0.835478         1.692005
 H        -1.221760        -0.301179         2.121595
 H        -2.971304         0.770718        -0.242467
 H        -0.687008         1.474342        -1.242772
 H        -0.573334         2.037300         0.564769
 H         0.301644        -2.972097         0.899863
 H        -1.057888        -3.231440        -0.148605
 H         0.387718        -2.662270        -0.919937
