19
Iteration:  2499charge 0 multiplicity 1
 C        -2.853014        -1.499617         1.552461
 C        -1.717852        -0.605832         1.227364
 C        -2.030232         0.274163        -0.056059
 C        -0.715811         1.141481        -0.121854
 C         0.338696        -0.007444        -0.007741
 O         1.502538         0.030968         0.227859
 C        -0.718351        -1.134985         0.112788
 C        -0.143057        -2.546480         0.091689
 O        -1.758630        -0.796416        -0.952946
 H        -3.693385        -1.491141         0.813841
 H        -2.548526        -2.646126         1.524788
 H        -3.311441        -1.239956         2.546916
 H        -1.037308        -0.287819         2.159565
 H        -3.064715         0.742112        -0.147513
 H        -0.474630         1.632761        -1.092303
 H        -0.473189         1.694331         0.813397
 H         0.180614        -2.831234         1.094206
 H        -0.853300        -3.334289        -0.240168
 H         0.673644        -2.483223        -0.728862
