19
Iteration:  3228charge 0 multiplicity 1
 C        -2.969885        -1.638406         1.581216
 C        -1.776337        -0.616378         1.155568
 C        -2.057379         0.360179        -0.021184
 C        -0.717741         1.198027        -0.023382
 C         0.271054        -0.049148         0.045762
 O         1.544484        -0.013462         0.031843
 C        -0.737191        -1.148165         0.154467
 C        -0.143874        -2.583451         0.167275
 O        -1.551673        -0.706031        -0.969252
 H        -3.220495        -2.214032         0.712308
 H        -2.540823        -2.189313         2.424530
 H        -3.832509        -1.072151         1.812186
 H        -1.294259        -0.164969         2.025353
 H        -2.966441         0.825189        -0.490991
 H        -0.714646         1.897734        -0.937240
 H        -0.548927         2.073803         0.725861
 H         0.843407        -2.642072         0.488232
 H        -0.667905        -3.152009         0.952296
 H        -0.134269        -3.160948        -0.709377
