19
Iteration:  1447
 C        -2.776045        -1.545727         1.571223
 C        -1.706626        -0.611206         1.184207
 C        -2.008155         0.384522         0.029113
 C        -0.787267         1.205212        -0.049567
 C         0.290989         0.020625         0.066257
 O         1.458793        -0.022765         0.057035
 C        -0.711883        -1.141210         0.174641
 C        -0.243353        -2.568776         0.059997
 O        -1.612237        -0.846837        -0.974046
 H        -2.175313        -2.276475         2.118857
 H        -3.585379        -1.191040         2.175653
 H        -3.185966        -2.033250         0.711759
 H        -1.275108        -0.093876         2.043151
 H        -3.082706         0.739087         0.053419
 H        -0.600694         1.715024        -0.947226
 H        -0.591665         1.993929         0.654506
 H         0.110146        -2.901756         1.000406
 H        -1.119967        -3.185632        -0.139311
 H         0.499042        -2.812912        -0.707633
