19
Iteration:  4821charge 0 multiplicity 1
 C        -2.724869        -1.597854         1.675377
 C        -1.712599        -0.512305         1.078721
 C        -1.998439         0.387201        -0.088009
 C        -0.661384         1.189078        -0.139365
 C         0.239745        -0.038024         0.019245
 O         1.416332        -0.007180         0.328683
 C        -0.727509        -1.208579         0.079035
 C        -0.267093        -2.596518         0.062701
 O        -1.678794        -0.761958        -0.978934
 H        -3.508823        -1.760744         0.863982
 H        -2.209887        -2.654197         1.809154
 H        -3.291000        -1.148668         2.574068
 H        -1.029389        -0.080915         1.963990
 H        -3.005780         0.763524        -0.354319
 H        -0.411282         1.765645        -1.000871
 H        -0.621567         1.651358         0.830568
 H         0.286243        -2.778831         1.000288
 H        -1.090453        -3.251454        -0.089673
 H         0.530093        -2.712142        -0.719220
