19
Iteration:    22charge 0 multiplicity 1
 C        -2.818456        -1.531713         1.361451
 C        -1.690570        -0.515954         1.232489
 C        -2.010412         0.348732        -0.014174
 C        -0.706137         1.182114        -0.171533
 C         0.281392         0.026530         0.091717
 O         1.507063         0.175435         0.179005
 C        -0.680023        -1.225267         0.227682
 C        -0.172236        -2.641509         0.002932
 O        -1.763835        -0.969520        -0.760771
 H        -2.494961        -2.433692         1.901313
 H        -3.658639        -1.172455         1.966080
 H        -3.216783        -1.846039         0.399487
 H        -1.348127        -0.032889         2.129828
 H        -3.003431         0.758455        -0.204622
 H        -0.631062         1.654153        -1.155973
 H        -0.680449         1.918886         0.540902
 H         0.816088        -2.771016         0.509437
 H        -0.902860        -3.409348         0.300490
 H         0.014252        -2.714009        -1.106757
