19
Iteration:  2431charge 0 multiplicity 1
 C        -2.917642        -1.555141         1.442667
 C        -1.831585        -0.604828         1.205325
 C        -2.043571         0.314341        -0.005188
 C        -0.683950         1.156230         0.040739
 C         0.316399         0.057445         0.024511
 O         1.545813         0.027067        -0.042200
 C        -0.683942        -1.142309         0.145024
 C        -0.188827        -2.575093         0.180019
 O        -1.612766        -0.831244        -0.883987
 H        -3.195848        -2.284419         0.639358
 H        -2.450686        -2.145068         2.284369
 H        -3.842835        -1.145830         1.915154
 H        -1.456119         0.038701         2.095910
 H        -2.967730         0.696898        -0.317052
 H        -0.492551         1.901368        -0.824740
 H        -0.692544         1.788352         0.930262
 H         0.657062        -2.766221         0.867339
 H        -1.010688        -3.216819         0.390458
 H         0.153152        -2.846614        -0.838767
