19
Iteration:  3021
 C        -2.808650        -1.502113         1.510283
 C        -1.729184        -0.562615         1.152951
 C        -1.976282         0.305106        -0.067931
 C        -0.652200         1.147411        -0.124210
 C         0.274115         0.025584         0.029520
 O         1.506441         0.031897         0.226819
 C        -0.746560        -1.157226         0.118730
 C        -0.121369        -2.580578         0.162598
 O        -1.796350        -0.830905        -0.914113
 H        -3.488500        -1.712545         0.635390
 H        -2.280205        -2.465617         1.831712
 H        -3.556086        -1.178187         2.263429
 H        -1.125070        -0.243405         2.044248
 H        -2.909529         0.877927        -0.202192
 H        -0.571995         1.494319        -1.215978
 H        -0.811304         1.888145         0.627455
 H         0.038871        -2.933060         1.198141
 H        -0.989245        -3.186077        -0.303325
 H         0.680395        -2.900224        -0.535823
