19
Iteration:  1271charge 0 multiplicity 1
 C        -2.767533        -1.633487         1.557941
 C        -1.757449        -0.553760         1.151161
 C        -2.029608         0.362210        -0.087932
 C        -0.618694         1.266261        -0.019081
 C         0.197795        -0.061139         0.047111
 O         1.452471        -0.098048         0.079593
 C        -0.761065        -1.143170         0.093187
 C        -0.064390        -2.499936         0.078367
 O        -1.778616        -0.780762        -0.852187
 H        -2.477567        -2.299275         2.372164
 H        -3.701971        -1.156907         1.926777
 H        -2.942627        -2.309799         0.713026
 H        -1.313220        -0.006491         2.045099
 H        -3.046632         1.014108        -0.091566
 H        -0.345147         1.787981        -0.924733
 H        -0.501144         1.746578         0.922600
 H         0.248631        -2.845665         1.076196
 H        -0.720036        -3.340415        -0.276414
 H         0.848570        -2.413879        -0.528611
