19
Iteration:   949
 C        -2.911709        -1.540027         1.568964
 C        -1.714998        -0.656222         1.247720
 C        -1.909662         0.285258        -0.041997
 C        -0.697593         1.155918        -0.101746
 C         0.299366         0.039688         0.088999
 O         1.511898         0.199454         0.153248
 C        -0.706415        -1.194517         0.190603
 C        -0.309380        -2.611821        -0.080949
 O        -1.639261        -0.847992        -0.902982
 H        -2.662603        -2.101468         2.500721
 H        -3.781460        -0.941502         1.871787
 H        -3.140490        -2.320215         0.826886
 H        -1.183170        -0.241505         2.131315
 H        -2.841654         0.746472        -0.273556
 H        -0.530659         1.608290        -1.159364
 H        -0.700809         1.910979         0.588009
 H         0.577526        -2.682288         0.512581
 H        -0.935877        -3.413458         0.371817
 H        -0.126464        -2.961527        -1.104313
