19
Iteration:   784charge 0 multiplicity 1
 C        -2.951561        -1.551677         1.661727
 C        -1.806271        -0.712662         1.148748
 C        -2.008516         0.271586        -0.073154
 C        -0.686304         1.192763         0.058424
 C         0.258365         0.008071         0.071775
 O         1.438998         0.043115        -0.049559
 C        -0.660598        -1.163212         0.146678
 C        -0.159687        -2.560543         0.170947
 O        -1.535826        -0.728565        -1.029521
 H        -2.921238        -1.882400         2.668892
 H        -3.767675        -0.835763         1.602690
 H        -3.069406        -2.420833         1.008110
 H        -1.288219        -0.239289         1.959411
 H        -2.965828         0.664807        -0.276733
 H        -0.455400         1.677514        -0.908577
 H        -0.754465         1.734055         0.969012
 H         0.440556        -2.521232         1.109687
 H        -0.855220        -3.365491         0.227089
 H         0.591349        -2.693741        -0.602176
