19
Iteration:  3545
 C        -2.946832        -1.475757         1.645534
 C        -1.784309        -0.681772         1.217237
 C        -2.058323         0.311080        -0.004167
 C        -0.679496         1.166061        -0.109356
 C         0.277498        -0.040799         0.046847
 O         1.529694        -0.004318         0.116725
 C        -0.729312        -1.188967         0.129415
 C        -0.128327        -2.533037         0.040052
 O        -1.590239        -0.733385        -0.955885
 H        -3.206282        -2.124637         0.751535
 H        -2.745395        -2.279318         2.401028
 H        -3.740234        -0.802306         1.982953
 H        -1.475317        -0.073776         2.124939
 H        -3.007833         0.778390        -0.284320
 H        -0.554804         1.730394        -1.046834
 H        -0.617708         1.853700         0.672284
 H         0.942093        -2.623665         0.413983
 H        -0.733764        -3.385449         0.540025
 H        -0.070818        -2.989993        -0.989955
