19
Iteration:  3328charge 0 multiplicity 1
 C        -2.800212        -1.578515         1.547399
 C        -1.694353        -0.525209         1.205808
 C        -2.015494         0.347397         0.023426
 C        -0.713630         1.156205        -0.191505
 C         0.347408         0.014039        -0.022739
 O         1.480032         0.094130         0.269316
 C        -0.702556        -1.200024         0.126673
 C        -0.249931        -2.668096         0.099732
 O        -1.724881        -0.813140        -0.931383
 H        -3.246496        -1.584678         0.541395
 H        -2.484411        -2.610768         1.656854
 H        -3.452075        -1.210286         2.317108
 H        -1.254058         0.004816         2.061526
 H        -2.994632         0.747961        -0.004452
 H        -0.585707         1.608833        -1.276353
 H        -0.364675         2.070949         0.466141
 H        -0.005413        -3.008990         1.059116
 H        -1.046583        -3.213381        -0.371217
 H         0.524019        -2.886621        -0.589153
