19
Iteration:   573
 C        -2.910555        -1.547374         1.395338
 C        -1.637007        -0.606871         1.286106
 C        -1.971146         0.306706         0.095542
 C        -0.695358         1.079091        -0.142466
 C         0.267924         0.008178        -0.044803
 O         1.434647         0.214596         0.062540
 C        -0.679367        -1.162128         0.168346
 C        -0.217099        -2.648946         0.212072
 O        -1.674202        -0.852873        -0.877232
 H        -3.130096        -2.008001         2.365348
 H        -3.677364        -0.844717         1.093952
 H        -2.740258        -2.303026         0.636376
 H        -1.063695        -0.162076         2.099474
 H        -2.865246         1.027269        -0.147389
 H        -0.671365         1.509827        -1.100092
 H        -0.364079         1.924054         0.687890
 H        -0.001144        -2.971160         1.222322
 H        -0.968672        -3.359016        -0.284225
 H         0.652779        -2.780982        -0.450917
