19
Iteration:  3504
 C        -2.853122        -1.652212         1.499650
 C        -1.757567        -0.509090         1.186282
 C        -2.057522         0.374470        -0.083594
 C        -0.669816         1.246934        -0.043636
 C         0.227924        -0.011545         0.069847
 O         1.479763        -0.071312         0.021617
 C        -0.746379        -1.185823         0.164580
 C        -0.181402        -2.581504         0.213730
 O        -1.583293        -0.737398        -0.945363
 H        -3.538987        -1.723141         0.646941
 H        -2.383079        -2.587343         1.730464
 H        -3.436482        -1.284731         2.318166
 H        -1.261641        -0.295310         2.184083
 H        -3.053242         0.665827        -0.272141
 H        -0.318220         1.921425        -0.933589
 H        -0.561838         1.588801         1.038093
 H         0.870868        -2.462423         0.505386
 H        -0.715958        -3.065710         0.968961
 H        -0.262819        -3.029556        -0.770157
