19
Iteration:  1714charge 0 multiplicity 1
 C        -2.820229        -1.602804         1.611066
 C        -1.617929        -0.648263         1.160002
 C        -2.000801         0.369776        -0.001462
 C        -0.697804         1.113404        -0.159324
 C         0.287023        -0.091639         0.037743
 O         1.472572         0.085081         0.141982
 C        -0.782895        -1.202817         0.097723
 C        -0.167566        -2.553346         0.085661
 O        -1.758158        -0.686767        -0.904582
 H        -2.519538        -2.306680         2.458889
 H        -3.588950        -0.979999         2.120315
 H        -3.274087        -2.175375         0.783848
 H        -1.153550        -0.191943         2.072520
 H        -2.942475         0.919691        -0.261962
 H        -0.603556         1.691933        -1.147839
 H        -0.465976         1.895049         0.582683
 H         0.208906        -2.956361         1.080456
 H        -1.040203        -3.222589        -0.265388
 H         0.775617        -2.693932        -0.474570
