19
Iteration:  1607
 C        -2.889258        -1.489141         1.479917
 C        -1.657230        -0.631257         1.225941
 C        -2.002314         0.299588         0.064794
 C        -0.769103         1.217610         0.015717
 C         0.282716         0.011262         0.013762
 O         1.549271         0.130323         0.024164
 C        -0.568828        -1.162707         0.166336
 C        -0.294555        -2.678972         0.062020
 O        -1.662218        -0.851013        -0.920846
 H        -2.860304        -2.210378         2.368970
 H        -3.765837        -0.813931         1.704030
 H        -3.247752        -1.979868         0.544589
 H        -1.097141        -0.245003         2.175959
 H        -2.980523         0.659868         0.055872
 H        -0.750798         1.602297        -1.061717
 H        -0.807123         1.984781         0.781359
 H         0.755361        -2.876718         0.460589
 H        -0.958265        -3.371336         0.704824
 H        -0.459582        -3.050504        -1.005591
