19
Iteration:  2282
 C        -2.824664        -1.525348         1.633694
 C        -1.668226        -0.639732         1.219451
 C        -1.975220         0.272492         0.036428
 C        -0.631379         1.186083        -0.197173
 C         0.308681         0.026028         0.050065
 O         1.496304         0.192935         0.245181
 C        -0.713359        -1.316448         0.156832
 C        -0.321724        -2.642964        -0.082530
 O        -1.706311        -0.768061        -0.969985
 H        -2.556399        -2.567778         1.760539
 H        -3.233013        -1.306013         2.650081
 H        -3.600898        -1.542110         0.893393
 H        -1.242884        -0.049510         2.055344
 H        -3.096691         0.673556         0.176173
 H        -0.686532         1.504203        -1.251786
 H        -0.452414         2.072090         0.462085
 H         0.024274        -2.950454         0.942025
 H        -1.189467        -3.259159        -0.286928
 H         0.536642        -2.728268        -0.877454
