19
Iteration:  1163
 C        -2.855248        -1.627213         1.567303
 C        -1.746746        -0.667310         1.139169
 C        -1.973563         0.351786        -0.051594
 C        -0.724218         1.269896         0.001756
 C         0.271342        -0.001069         0.054949
 O         1.448604        -0.096547        -0.016001
 C        -0.759058        -1.144798         0.178902
 C        -0.125541        -2.519805         0.170204
 O        -1.667283        -0.741503        -0.940298
 H        -2.386882        -2.533429         1.947058
 H        -3.476496        -1.244503         2.383394
 H        -3.511019        -1.883387         0.734847
 H        -1.431816        -0.116497         2.017024
 H        -2.921555         0.871181        -0.372009
 H        -0.575300         1.867134        -0.828854
 H        -0.340916         1.875620         0.866889
 H         0.229496        -2.588163         1.221923
 H        -0.659895        -3.441248        -0.181325
 H         0.753047        -2.377860        -0.497462
