19
Iteration:  3953charge 0 multiplicity 1
 C        -2.950760        -1.668713         1.643344
 C        -1.737009        -0.650483         1.212682
 C        -1.977690         0.356763         0.059776
 C        -0.705334         1.222104        -0.166208
 C         0.314512        -0.020834         0.028113
 O         1.557018         0.109842         0.147862
 C        -0.733024        -1.160976         0.101226
 C        -0.279624        -2.650535         0.036909
 O        -1.583070        -0.721433        -0.967358
 H        -3.227367        -2.290463         0.803598
 H        -2.489482        -2.161567         2.513311
 H        -3.829053        -0.985598         1.847289
 H        -1.471325        -0.144250         2.252898
 H        -2.977217         0.664539        -0.287939
 H        -0.617964         1.761534        -1.048606
 H        -0.346225         1.790688         0.659863
 H         0.601133        -2.720641         0.622652
 H        -1.156064        -3.270410         0.415467
 H        -0.007728        -3.019382        -0.932573
