19
Iteration:   859charge 0 multiplicity 1
 C        -2.866339        -1.634294         1.411538
 C        -1.709981        -0.635911         1.248589
 C        -2.040045         0.377954         0.039261
 C        -0.727643         1.299821        -0.150917
 C         0.307185         0.054319        -0.061266
 O         1.500258        -0.054332         0.043924
 C        -0.747606        -1.184581         0.193292
 C        -0.095164        -2.565964         0.237283
 O        -1.708623        -0.792848        -0.863807
 H        -2.523961        -2.650439         1.668396
 H        -3.464260        -1.239911         2.283810
 H        -3.494578        -1.645338         0.459403
 H        -1.248592        -0.278216         2.221977
 H        -3.003372         0.735873        -0.305297
 H        -0.793263         1.808068        -1.053922
 H        -0.485386         1.940878         0.734365
 H        -0.110881        -2.908867         1.292063
 H        -0.683753        -3.268804        -0.316038
 H         0.924527        -2.513587        -0.155743
