19
Iteration:   665
 C        -2.828397        -1.457544         1.691779
 C        -1.727915        -0.576730         1.146149
 C        -2.041244         0.224248        -0.107504
 C        -0.742873         1.111160        -0.161325
 C         0.299820         0.051583         0.066873
 O         1.488644         0.112903         0.342548
 C        -0.631168        -1.216620         0.008522
 C        -0.186471        -2.585662         0.033681
 O        -1.692014        -0.864069        -0.988480
 H        -2.479696        -2.457834         1.768241
 H        -3.113280        -1.111500         2.666727
 H        -3.667757        -1.487370         1.004718
 H        -1.245428        -0.113868         1.995626
 H        -2.981230         0.646770        -0.312618
 H        -0.705887         1.750265        -1.152890
 H        -0.740889         1.750306         0.688808
 H         0.563491        -2.557080         0.869171
 H        -1.045578        -3.161795         0.346114
 H         0.199095        -2.884906        -0.950919
