19
Iteration:  4082charge 0 multiplicity 1
 C        -2.791591        -1.564727         1.495557
 C        -1.735364        -0.577557         1.222525
 C        -1.960482         0.275481        -0.010152
 C        -0.727909         1.289908         0.036830
 C         0.325170        -0.001948         0.006645
 O         1.504287         0.025197         0.003472
 C        -0.654333        -1.135912         0.151784
 C        -0.348610        -2.598454         0.110898
 O        -1.634999        -0.839711        -0.903773
 H        -2.976347        -2.271992         0.655003
 H        -2.552820        -2.363138         2.293780
 H        -3.790179        -1.088293         1.746428
 H        -1.416856        -0.093427         2.211155
 H        -2.830372         0.857006        -0.166747
 H        -0.671747         1.881292        -0.967090
 H        -0.813185         1.884109         0.972404
 H        -0.026859        -3.084728         1.064300
 H        -1.294662        -3.139501        -0.204927
 H         0.418067        -2.827619        -0.646377
