19
Iteration:  4725charge 0 multiplicity 1
 C        -2.993987        -1.481986         1.460729
 C        -1.732106        -0.661385         1.206676
 C        -1.921851         0.275813         0.053584
 C        -0.707545         1.158567        -0.012767
 C         0.287550         0.030082        -0.012680
 O         1.516357        -0.002052         0.079585
 C        -0.690604        -1.177022         0.124519
 C        -0.178641        -2.550538         0.115880
 O        -1.655112        -0.769411        -0.900429
 H        -3.045677        -2.249420         0.733479
 H        -2.858709        -2.015596         2.374794
 H        -3.902582        -0.899432         1.407307
 H        -1.318073        -0.217975         2.079787
 H        -2.849363         0.785821         0.066306
 H        -0.656940         1.683538        -0.962493
 H        -0.719054         1.710137         0.913520
 H         0.843076        -2.564109         0.571205
 H        -0.920795        -3.224553         0.411311
 H         0.125919        -2.826767        -0.967353
