19
Iteration:  1841
 C        -2.857270        -1.597621         1.464320
 C        -1.719478        -0.585506         1.185167
 C        -1.986412         0.384832        -0.053867
 C        -0.707579         1.213261        -0.055537
 C         0.266538        -0.011789         0.098385
 O         1.447066        -0.019124        -0.043451
 C        -0.726770        -1.209036         0.238441
 C        -0.066933        -2.568299         0.140185
 O        -1.738435        -0.767475        -0.845403
 H        -2.569263        -2.639572         1.489305
 H        -3.229421        -1.246653         2.425732
 H        -3.678475        -1.439097         0.790462
 H        -1.228388        -0.283877         2.136792
 H        -2.984942         0.852762        -0.297124
 H        -0.496247         1.702797        -0.979019
 H        -0.567530         1.869533         0.845605
 H         0.904728        -2.622863         0.600551
 H        -0.670761        -3.307227         0.612804
 H        -0.019087        -2.848937        -0.884709
