19
Iteration:  3733charge 0 multiplicity 1
 C        -2.983506        -1.535083         1.437540
 C        -1.744614        -0.570525         1.245602
 C        -1.940614         0.370837         0.059860
 C        -0.689292         1.219351        -0.012780
 C         0.240553         0.008318         0.017075
 O         1.494098         0.005862        -0.027729
 C        -0.696279        -1.208803         0.209948
 C        -0.083626        -2.604991         0.081344
 O        -1.671716        -0.863212        -0.833922
 H        -3.007450        -2.273538         0.591915
 H        -3.142569        -2.150499         2.384356
 H        -3.928837        -0.890274         1.334493
 H        -1.269631        -0.399133         2.159447
 H        -2.900443         0.787339        -0.168882
 H        -0.445062         1.759411        -0.973574
 H        -0.418903         1.906014         0.751815
 H         0.853716        -2.546406         0.763845
 H        -0.939289        -3.256057         0.255317
 H         0.038813        -2.411590        -1.046299
