19
Iteration:  2556charge 0 multiplicity 1
 C        -2.911235        -1.518167         1.683779
 C        -1.752442        -0.696178         1.213360
 C        -1.961380         0.283997         0.039048
 C        -0.779732         1.123885        -0.145970
 C         0.313911         0.013036         0.073744
 O         1.481988         0.077305         0.194016
 C        -0.701636        -1.124145         0.087438
 C        -0.254354        -2.581086        -0.029065
 O        -1.516295        -0.788021        -0.976223
 H        -3.267880        -2.169229         0.840847
 H        -2.938447        -2.056602         2.660767
 H        -3.726768        -0.755288         1.773342
 H        -1.127006        -0.142670         1.944412
 H        -2.976295         0.796357        -0.117971
 H        -0.676873         1.451789        -1.117014
 H        -0.568514         1.988950         0.486988
 H         0.324290        -2.947192         0.824115
 H        -1.181401        -3.193570        -0.284344
 H         0.485734        -2.656646        -0.834427
