19
Iteration:  3812
 C        -2.835878        -1.512584         1.560697
 C        -1.756751        -0.604002         1.206280
 C        -1.985637         0.309827        -0.047252
 C        -0.720044         1.184643        -0.009310
 C         0.309601         0.024079         0.099047
 O         1.496099         0.056111         0.040999
 C        -0.709346        -1.274774         0.161239
 C        -0.229817        -2.609524         0.075095
 O        -1.648066        -0.747817        -0.945082
 H        -3.321124        -1.875585         0.677395
 H        -2.337953        -2.399291         1.932676
 H        -3.754205        -1.296063         2.144838
 H        -1.466144        -0.033114         2.001472
 H        -3.015165         0.727836        -0.117871
 H        -0.345263         1.628602        -0.938702
 H        -0.586886         1.945770         0.785890
 H         0.594191        -2.805920         0.798804
 H        -1.182851        -3.208620         0.231268
 H         0.211945        -2.863968        -0.875653
