19
Iteration:  2602charge 0 multiplicity 1
 C        -2.761215        -1.620771         1.462446
 C        -1.748462        -0.530426         1.218340
 C        -2.045916         0.414361        -0.045236
 C        -0.694817         1.172967         0.014970
 C         0.212951        -0.093691         0.025300
 O         1.467892        -0.117524         0.137394
 C        -0.775783        -1.141023         0.108261
 C        -0.125135        -2.454197         0.173987
 O        -1.689199        -0.774400        -1.001631
 H        -2.758886        -2.446951         0.772107
 H        -2.532600        -2.090902         2.394308
 H        -3.790845        -1.360084         1.643200
 H        -1.336749         0.080391         1.942180
 H        -3.010724         0.834498        -0.290718
 H        -0.414994         1.732351        -0.831388
 H        -0.360541         1.764004         0.810735
 H         0.826380        -2.287502         0.783738
 H        -0.824902        -3.139945         0.612167
 H         0.226226        -2.823471        -0.783361
