19
Iteration:  2724
 C        -2.890135        -1.636331         1.606868
 C        -1.829911        -0.632831         1.141734
 C        -1.994897         0.335878        -0.047668
 C        -0.631657         1.188662        -0.136570
 C         0.244983         0.083661         0.088560
 O         1.475591        -0.082645         0.128560
 C        -0.773342        -1.198138         0.106653
 C        -0.128174        -2.517647         0.164282
 O        -1.610627        -0.691146        -1.005475
 H        -3.619083        -2.060223         0.946440
 H        -2.421345        -2.417018         2.201602
 H        -3.555545        -1.123747         2.303693
 H        -1.270629        -0.316979         2.026404
 H        -2.980302         0.784880        -0.190759
 H        -0.550511         1.650052        -1.107585
 H        -0.303214         1.824428         0.602929
 H         0.087782        -2.505387         1.279280
 H        -0.686186        -3.440885         0.153395
 H         0.723643        -2.530703        -0.553539
