19
Iteration:   323
 C        -2.861872        -1.573266         1.557208
 C        -1.724325        -0.606525         1.147912
 C        -1.925196         0.332951        -0.078823
 C        -0.735402         1.191143        -0.239261
 C         0.249750         0.069850         0.077289
 O         1.442660         0.122438         0.233361
 C        -0.654730        -1.214842         0.273846
 C        -0.171162        -2.637776         0.038576
 O        -1.694691        -0.851688        -0.883770
 H        -2.378283        -2.508851         1.920755
 H        -3.370441        -1.140936         2.428912
 H        -3.575663        -1.748447         0.718172
 H        -1.397928        -0.124111         2.135250
 H        -3.028924         0.667931        -0.326406
 H        -0.695204         1.426601        -1.306354
 H        -0.470337         2.213820         0.333743
 H         0.702278        -2.871015         0.701848
 H        -1.028708        -3.327014         0.163230
 H         0.377683        -2.695123        -0.949697
