19
Iteration:  1123charge 0 multiplicity 1
 C        -2.875260        -1.658289         1.471523
 C        -1.781611        -0.677021         1.233025
 C        -2.018434         0.347048         0.032246
 C        -0.643721         1.258397        -0.097198
 C         0.279688         0.071103         0.012733
 O         1.497840        -0.072342         0.020389
 C        -0.736371        -1.176225         0.206767
 C        -0.138198        -2.524606         0.155147
 O        -1.673038        -0.717285        -0.886167
 H        -2.670703        -2.374430         2.315729
 H        -3.766094        -1.025441         1.689217
 H        -3.231280        -2.198157         0.587253
 H        -1.284079        -0.396726         2.180136
 H        -2.917705         0.825538        -0.161445
 H        -0.784491         1.638001        -1.168257
 H        -0.570263         2.051984         0.703470
 H         0.781728        -2.491485         0.687748
 H        -0.764907        -3.388717         0.454570
 H         0.206696        -2.729194        -0.880350
