19
Iteration:  4693
 C        -2.958199        -1.658968         1.525592
 C        -1.873253        -0.643040         1.151774
 C        -1.925764         0.389637        -0.034362
 C        -0.670455         1.180962        -0.014234
 C         0.267476         0.028280         0.138811
 O         1.496899        -0.076347        -0.079339
 C        -0.745175        -1.190515         0.246072
 C        -0.177040        -2.565461         0.138026
 O        -1.543304        -0.650828        -0.890160
 H        -2.972386        -2.330275         0.747462
 H        -2.548780        -2.050915         2.387390
 H        -3.937880        -1.346763         1.762980
 H        -1.606581        -0.206158         2.085199
 H        -2.790006         0.951087        -0.239751
 H        -0.439596         1.682857        -1.000851
 H        -0.692153         2.142979         0.537641
 H         0.738227        -2.714827         0.802826
 H        -0.847797        -3.355156         0.315350
 H         0.059361        -2.666978        -0.981491
