19
Iteration:  4846charge 0 multiplicity 1
 C        -2.798406        -1.556650         1.631356
 C        -1.658169        -0.645026         1.138681
 C        -2.012020         0.365973         0.021397
 C        -0.707854         1.233119        -0.108958
 C         0.298529         0.009034        -0.006167
 O         1.497143         0.005096         0.311534
 C        -0.701295        -1.209412        -0.016562
 C        -0.254112        -2.614417         0.083417
 O        -1.723262        -0.754778        -1.006499
 H        -3.351926        -1.896459         0.736853
 H        -2.576209        -2.469351         2.316494
 H        -3.468712        -0.742694         2.020706
 H        -1.183991        -0.186279         2.094133
 H        -2.986234         0.741639        -0.174837
 H        -0.531635         1.432041        -1.184778
 H        -0.695130         1.997865         0.666521
 H         0.150382        -2.782432         1.164455
 H        -1.123215        -3.248932        -0.069325
 H         0.613658        -2.879498        -0.643328
