19
Iteration:   506charge 0 multiplicity 1
 C        -2.855171        -1.541430         1.495598
 C        -1.817314        -0.520708         1.106736
 C        -2.035391         0.354519        -0.136866
 C        -0.751564         1.057523         0.110522
 C         0.234404        -0.009012         0.079040
 O         1.446432        -0.064548        -0.103278
 C        -0.809074        -1.190479         0.241902
 C        -0.061898        -2.436107         0.295106
 O        -1.506651        -0.812223        -0.971489
 H        -2.425947        -2.476952         1.925537
 H        -3.467688        -1.086507         2.290102
 H        -3.511417        -1.934487         0.685827
 H        -1.427023        -0.040246         2.007955
 H        -3.019497         0.716021        -0.539863
 H        -0.624901         1.843260        -0.638670
 H        -0.680206         1.641773         1.133781
 H         0.720277        -2.318983         1.042094
 H        -0.582196        -3.384597         0.433363
 H         0.362318        -2.545213        -0.733324
