19
Iteration:  4523
 C        -2.821154        -1.589081         1.666154
 C        -1.730364        -0.657450         1.144574
 C        -1.972189         0.341157         0.012660
 C        -0.727202         1.211873        -0.065922
 C         0.282698        -0.001154         0.014029
 O         1.513258         0.000981         0.269099
 C        -0.677367        -1.168240        -0.018546
 C        -0.299171        -2.592913         0.094262
 O        -1.657849        -0.726743        -1.041380
 H        -3.195844        -2.218489         0.816286
 H        -2.480533        -2.248597         2.507813
 H        -3.685865        -0.944740         2.006078
 H        -1.260008        -0.175305         1.966238
 H        -2.985308         0.714434        -0.090029
 H        -0.589487         1.665370        -0.990443
 H        -0.515293         2.094901         0.521850
 H         0.691235        -2.667639         0.599602
 H        -1.000271        -3.331043         0.525008
 H        -0.098058        -2.844753        -0.948092
