19
Iteration:  2350charge 0 multiplicity 1
 C        -2.858754        -1.608850         1.550726
 C        -1.797670        -0.592293         1.150956
 C        -1.999814         0.413231        -0.047424
 C        -0.701505         1.246355        -0.034161
 C         0.277019        -0.031221         0.069477
 O         1.437738        -0.107899         0.039851
 C        -0.718151        -1.152720         0.226772
 C        -0.068353        -2.494328         0.063191
 O        -1.686260        -0.821203        -0.905584
 H        -2.635201        -2.586355         1.227491
 H        -2.894091        -1.631270         2.614571
 H        -3.795626        -1.353596         1.095467
 H        -1.434844         0.062571         1.943495
 H        -3.056258         0.847567        -0.309832
 H        -0.445753         1.747005        -0.925921
 H        -0.428389         1.776288         0.939873
 H         0.568722        -2.615322         0.925736
 H        -0.864289        -3.269700         0.113037
 H         0.592295        -2.517363        -0.803020
