19
Iteration:  4438
 C        -2.937242        -1.486822         1.525395
 C        -1.785121        -0.664431         1.177251
 C        -1.914477         0.355556         0.065236
 C        -0.721152         1.199940        -0.033140
 C         0.282514         0.054875         0.071583
 O         1.450070        -0.091310         0.068553
 C        -0.731727        -1.211519         0.109281
 C        -0.042702        -2.575867         0.107581
 O        -1.694820        -0.727328        -0.973496
 H        -3.401475        -1.779802         0.614020
 H        -2.586615        -2.323364         2.055720
 H        -3.635492        -1.028381         2.114181
 H        -1.326880        -0.365749         2.131184
 H        -2.890925         0.839774        -0.059019
 H        -0.710206         1.429886        -1.087318
 H        -0.519247         1.861817         0.793076
 H         0.740737        -2.371307         0.807457
 H        -0.750446        -3.387019         0.342151
 H         0.420858        -2.877242        -0.788271
