19
Iteration:   108
 C        -2.787700        -1.559576         1.649749
 C        -1.772824        -0.590181         1.099844
 C        -1.971024         0.365806        -0.125191
 C        -0.766590         1.236455        -0.084111
 C         0.279134         0.045750         0.075276
 O         1.450984        -0.067293         0.268691
 C        -0.746157        -1.127856         0.102306
 C        -0.137062        -2.511700         0.051989
 O        -1.677154        -0.937659        -0.966744
 H        -2.102708        -1.985065         2.408669
 H        -3.642127        -1.072338         2.150374
 H        -3.099028        -2.363568         0.966137
 H        -1.354924        -0.089524         1.984621
 H        -2.867058         0.863579        -0.455990
 H        -0.720516         1.949906        -1.057308
 H        -0.922765         1.890740         0.752857
 H         0.775358        -2.499832         0.707749
 H        -0.812163        -3.399391         0.153964
 H         0.414697        -2.566365        -0.953310
