19
Iteration:   115
 C        -2.793620        -1.609480         1.624727
 C        -1.753148        -0.553570         1.148258
 C        -1.998286         0.322344        -0.120267
 C        -0.743711         1.275928        -0.151443
 C         0.254655         0.071100         0.132907
 O         1.456137        -0.055489         0.240557
 C        -0.726165        -1.160530         0.139335
 C        -0.096864        -2.534087         0.049322
 O        -1.705034        -0.879113        -0.982483
 H        -2.414947        -2.172298         2.528833
 H        -3.668326        -1.149732         2.124258
 H        -3.159289        -2.340073         0.882292
 H        -1.200386         0.030542         1.940901
 H        -2.966202         0.819242        -0.342127
 H        -0.533902         1.623741        -1.198727
 H        -0.735533         2.017681         0.770849
 H         0.655188        -2.723420         0.820571
 H        -0.862013        -3.276889         0.124198
 H         0.377709        -2.657379        -0.928152
