19
Iteration:  3940charge 0 multiplicity 1
 C        -2.800845        -1.619189         1.625371
 C        -1.748230        -0.651931         1.180602
 C        -1.991497         0.396204        -0.069835
 C        -0.674337         1.188403        -0.054814
 C         0.255188        -0.011690         0.070175
 O         1.472772         0.058347         0.157801
 C        -0.678798        -1.213484         0.085190
 C        -0.284077        -2.609540         0.053351
 O        -1.611397        -0.696388        -0.969330
 H        -3.064298        -2.469564         0.995866
 H        -2.679561        -2.149139         2.619092
 H        -3.782974        -1.162031         1.915613
 H        -1.118137        -0.236955         1.990416
 H        -2.886948         0.956720        -0.231579
 H        -0.656346         1.496258        -1.122662
 H        -0.618866         2.045719         0.581573
 H         0.453682        -2.861764         0.822934
 H        -1.089009        -3.277323         0.405578
 H        -0.035665        -2.910660        -0.949874
