19
Iteration:  4373
 C        -2.885536        -1.640202         1.566196
 C        -1.766463        -0.721990         1.236903
 C        -1.978390         0.382929         0.004755
 C        -0.708944         1.239309        -0.074721
 C         0.247914         0.010588         0.041769
 O         1.503657         0.044635        -0.041223
 C        -0.676053        -1.209539         0.279870
 C        -0.335533        -2.678001         0.135223
 O        -1.514425        -0.636969        -0.947112
 H        -3.103926        -2.158482         0.647325
 H        -2.578589        -2.244750         2.401201
 H        -3.764087        -1.102663         1.861815
 H        -1.297535        -0.209087         2.128436
 H        -2.764792         0.973888        -0.433167
 H        -0.673723         1.570189        -1.127224
 H        -0.564478         2.062240         0.568291
 H        -0.027959        -3.037122         1.082383
 H        -1.115533        -3.211469        -0.438499
 H         0.532776        -2.796898        -0.431390
