19
Iteration:  2688
 C        -3.003963        -1.411867         1.497845
 C        -1.749892        -0.617030         1.181314
 C        -2.001194         0.201587        -0.043267
 C        -0.736493         1.219286        -0.028322
 C         0.301819         0.138937         0.135251
 O         1.499418         0.047791         0.026148
 C        -0.706353        -1.207651         0.162278
 C        -0.140887        -2.687306         0.102125
 O        -1.559545        -0.854393        -0.915616
 H        -3.778584        -1.388752         0.704209
 H        -2.640705        -2.444608         1.562653
 H        -3.376649        -1.121193         2.496816
 H        -1.452232         0.030240         2.026270
 H        -2.957787         0.649357        -0.297164
 H        -0.621170         1.902515        -0.786586
 H        -0.665707         1.727571         0.944362
 H         0.717197        -2.745343         0.783076
 H        -0.895859        -3.449835         0.271601
 H         0.310178        -2.926092        -0.837493
