19
Iteration:   448
 C        -2.963308        -1.542879         1.441841
 C        -1.723487        -0.566927         1.216442
 C        -1.992858         0.294578         0.047384
 C        -0.715121         1.095719        -0.166133
 C         0.274048         0.004054         0.053428
 O         1.476626         0.160406         0.092377
 C        -0.650252        -1.203441         0.247485
 C        -0.151588        -2.602544         0.098451
 O        -1.629679        -0.824005        -0.868437
 H        -2.500215        -2.293609         2.090291
 H        -3.784644        -0.950492         1.903792
 H        -3.226730        -1.914233         0.435224
 H        -1.389422        -0.076372         2.146457
 H        -2.950483         0.647442        -0.035088
 H        -0.725407         1.356458        -1.296312
 H        -0.522527         1.906915         0.464447
 H         0.724851        -2.825138         0.732833
 H        -0.959793        -3.252671         0.387875
 H         0.084915        -2.758826        -0.947762
