19
Iteration:  1539
 C        -2.855863        -1.607547         1.592850
 C        -1.746535        -0.613392         1.202349
 C        -1.993176         0.339723         0.006601
 C        -0.693252         1.284898        -0.005710
 C         0.254194         0.004365        -0.028251
 O         1.424696        -0.154607         0.029189
 C        -0.776403        -1.197742         0.172540
 C        -0.099715        -2.458188         0.055551
 O        -1.645202        -0.753725        -0.916086
 H        -2.383194        -2.279494         2.337106
 H        -3.781056        -1.202519         2.067272
 H        -3.261034        -2.265675         0.792778
 H        -1.320124        -0.050347         2.121501
 H        -2.960788         0.795909        -0.249135
 H        -0.471609         1.627467        -1.038221
 H        -0.555743         2.167783         0.601702
 H         0.540941        -2.420532         1.024505
 H        -0.673369        -3.427890         0.145672
 H         0.546462        -2.480196        -0.841666
