19
Iteration:  2896
 C        -2.903967        -1.673818         1.433416
 C        -1.794420        -0.644852         1.217700
 C        -1.961813         0.403287         0.099736
 C        -0.705568         1.265387        -0.210543
 C         0.311794         0.014392         0.009046
 O         1.513333        -0.000059         0.078337
 C        -0.741874        -1.164224         0.235619
 C        -0.168749        -2.624573         0.257391
 O        -1.646670        -0.708580        -0.990292
 H        -3.262722        -2.043161         0.488278
 H        -2.733705        -2.554905         2.026964
 H        -3.750937        -1.158119         1.931428
 H        -1.519695        -0.248051         2.177332
 H        -2.970694         0.820028         0.021630
 H        -0.476692         1.524957        -1.220724
 H        -0.239777         1.949012         0.587986
 H         0.825476        -2.718174         0.628155
 H        -0.801757        -3.131667         0.859166
 H        -0.131061        -3.041847        -0.694266
