19
Iteration:  4306charge 0 multiplicity 1
 C        -2.934496        -1.547352         1.567000
 C        -1.732037        -0.631712         1.204466
 C        -1.999373         0.405630         0.031588
 C        -0.635331         1.175406        -0.057955
 C         0.251830        -0.043888        -0.021951
 O         1.403931        -0.070937         0.081061
 C        -0.765537        -1.167378         0.142514
 C        -0.055896        -2.512266         0.075710
 O        -1.618547        -0.772352        -0.922634
 H        -3.592705        -1.605841         0.676031
 H        -2.753737        -2.529317         2.060983
 H        -3.606172        -1.074446         2.261088
 H        -1.289610        -0.329811         2.190487
 H        -2.972417         0.807919        -0.220145
 H        -0.708366         1.744555        -0.941772
 H        -0.388626         1.922259         0.672133
 H         0.532233        -2.648960         0.998040
 H        -0.772087        -3.326416        -0.086680
 H         0.662885        -2.649977        -0.717993
