19
Iteration:  1267
 C        -2.774134        -1.647625         1.572246
 C        -1.761015        -0.518855         1.159236
 C        -2.044313         0.369301        -0.069544
 C        -0.611168         1.239420        -0.031768
 C         0.218783        -0.042445         0.050398
 O         1.469339        -0.077954         0.078049
 C        -0.761087        -1.141155         0.155044
 C        -0.057923        -2.529412         0.050431
 O        -1.805379        -0.793127        -0.880233
 H        -2.493996        -2.354623         2.373819
 H        -3.769913        -1.151996         1.718285
 H        -3.043221        -2.290865         0.691476
 H        -1.245458         0.028382         1.950980
 H        -2.874915         0.964792        -0.069383
 H        -0.428181         1.864187        -1.010983
 H        -0.468536         1.697777         1.001983
 H         0.235916        -2.858247         1.074553
 H        -0.716872        -3.258771        -0.337926
 H         0.890903        -2.494711        -0.466541
