19
Iteration:    67
 C        -2.841132        -1.544286         1.732060
 C        -1.753548        -0.707390         1.070400
 C        -1.958320         0.342214        -0.049528
 C        -0.803902         1.250812        -0.175569
 C         0.235610         0.045929         0.155801
 O         1.452436         0.062411         0.261498
 C        -0.723805        -1.294033         0.069161
 C        -0.087193        -2.629926         0.082407
 O        -1.617797        -0.727523        -1.060171
 H        -2.552816        -2.267091         2.468856
 H        -3.522812        -0.914203         2.308948
 H        -3.479266        -2.023876         0.989580
 H        -1.173988        -0.196355         1.824108
 H        -2.953997         0.767566        -0.189913
 H        -0.651412         1.407745        -1.183083
 H        -0.777164         2.087998         0.448774
 H         0.923960        -2.520251         0.491272
 H        -0.757308        -3.303662         0.655681
 H         0.006634        -2.992759        -0.928074
