19
Iteration:   818charge 0 multiplicity 1
 C        -2.972957        -1.583593         1.531030
 C        -1.805976        -0.687374         1.242796
 C        -2.003640         0.326306        -0.031246
 C        -0.760779         1.203126        -0.100255
 C         0.363288         0.047876         0.052513
 O         1.568455         0.149689        -0.097866
 C        -0.673679        -1.186381         0.282647
 C        -0.227460        -2.704480         0.144827
 O        -1.574652        -0.765056        -0.860432
 H        -2.656506        -2.426242         2.109013
 H        -3.816194        -1.077503         1.963107
 H        -3.365223        -1.886544         0.569061
 H        -1.618302        -0.163684         2.151666
 H        -2.930474         0.776558        -0.146283
 H        -0.525314         1.697720        -1.117874
 H        -0.669293         1.969902         0.639756
 H         0.025989        -3.030285         1.150176
 H        -0.890054        -3.374472        -0.381168
 H         0.755154        -2.659906        -0.348549
