19
Iteration:   558
 C        -2.951495        -1.537781         1.358806
 C        -1.704593        -0.697031         1.324082
 C        -1.940244         0.280036         0.145376
 C        -0.762190         1.162092        -0.241852
 C         0.358391         0.031828         0.016365
 O         1.533192         0.180216        -0.016713
 C        -0.661542        -1.250129         0.231728
 C        -0.255245        -2.578759         0.209653
 O        -1.625817        -0.752745        -0.864068
 H        -3.122782        -2.134063         2.308254
 H        -3.936033        -1.024398         1.200344
 H        -2.957939        -2.357176         0.573300
 H        -1.448150        -0.349721         2.351580
 H        -2.945775         0.458160         0.125965
 H        -0.872702         1.453126        -1.340098
 H        -0.581120         2.041064         0.294269
 H         0.025453        -2.807068         1.251211
 H        -1.060553        -3.228601        -0.074565
 H         0.623683        -2.843503        -0.400525
