19
Iteration:  3663charge 0 multiplicity 1
 C        -2.779168        -1.567818         1.604322
 C        -1.744454        -0.601411         1.149140
 C        -2.026987         0.381674        -0.123708
 C        -0.710664         1.212005        -0.003035
 C         0.310560        -0.012631        -0.027085
 O         1.477420        -0.030742         0.155105
 C        -0.723706        -1.173768         0.085788
 C        -0.220586        -2.580340         0.164724
 O        -1.664405        -0.794199        -0.952549
 H        -3.602502        -1.835126         0.920295
 H        -2.406169        -2.593946         1.829767
 H        -3.164837        -1.209181         2.557882
 H        -1.367289         0.006248         1.946698
 H        -3.007701         0.865423        -0.416388
 H        -0.408521         1.895481        -0.771259
 H        -0.849060         1.927590         0.864447
 H         0.302257        -2.814044         1.095561
 H        -1.052232        -3.276811        -0.108230
 H         0.516832        -2.699878        -0.639999
