19
Iteration:  1223
 C        -2.935876        -1.527279         1.576519
 C        -1.637969        -0.780537         1.282467
 C        -1.962649         0.373727         0.111860
 C        -0.748635         1.200549        -0.146398
 C         0.260811         0.128086         0.101052
 O         1.423230         0.118732        -0.002354
 C        -0.627250        -1.206814         0.187202
 C        -0.280527        -2.666666         0.023139
 O        -1.536570        -0.779009        -0.950898
 H        -2.892748        -2.373533         2.325414
 H        -3.682152        -0.779933         1.966455
 H        -3.284163        -2.014460         0.620232
 H        -1.218616        -0.399267         2.234754
 H        -2.909055         0.656120        -0.260854
 H        -0.732503         1.387515        -1.339841
 H        -0.448144         2.015981         0.635831
 H        -0.347896        -3.210295         0.998456
 H        -1.005668        -3.151599        -0.589241
 H         0.754675        -2.850285        -0.243599
