19
Iteration:  1504charge 0 multiplicity 1
 C        -2.915703        -1.488346         1.542744
 C        -1.642600        -0.649311         1.233785
 C        -1.959221         0.276491        -0.005612
 C        -0.773686         1.186845        -0.024176
 C         0.364911         0.038670         0.005832
 O         1.526761         0.156163         0.035609
 C        -0.718376        -1.202864         0.120613
 C        -0.234050        -2.689053         0.060744
 O        -1.702501        -0.813089        -0.878274
 H        -2.637998        -2.468128         1.858497
 H        -3.434293        -0.990998         2.368665
 H        -3.521271        -1.622267         0.645770
 H        -1.280932        -0.048934         2.101732
 H        -3.060308         0.640223        -0.066717
 H        -0.688396         1.507713        -0.998598
 H        -0.552177         1.866683         0.789163
 H         0.160461        -2.930671         1.093847
 H        -1.048665        -3.334517        -0.207811
 H         0.651837        -2.812510        -0.586367
