19
Iteration:  3307charge 0 multiplicity 1
 C        -2.941430        -1.521313         1.532336
 C        -1.709441        -0.690140         1.197189
 C        -1.907698         0.346514         0.024341
 C        -0.673348         1.180317        -0.265890
 C         0.292331        -0.018562         0.085778
 O         1.485795         0.118968         0.206811
 C        -0.683962        -1.191757         0.150615
 C        -0.222968        -2.627234         0.049366
 O        -1.725039        -0.778036        -0.856249
 H        -3.477798        -1.883403         0.630198
 H        -2.622722        -2.433450         2.040159
 H        -3.510622        -0.900791         2.248972
 H        -1.109199        -0.537517         2.062546
 H        -2.849324         0.789187        -0.095848
 H        -0.502010         1.315057        -1.412378
 H        -0.705031         2.186134         0.332451
 H         0.324268        -2.738117         0.946322
 H        -0.866918        -3.392039        -0.207508
 H         0.531857        -2.628749        -0.704989
