19
Iteration:  4359
 C        -2.948104        -1.620135         1.547422
 C        -1.720977        -0.621598         1.237863
 C        -1.888543         0.291714         0.068564
 C        -0.689956         1.191479        -0.108220
 C         0.296510         0.067541         0.004061
 O         1.477672         0.056584        -0.015910
 C        -0.736066        -1.175812         0.186851
 C        -0.313061        -2.613779         0.147585
 O        -1.519244        -0.716959        -0.959041
 H        -3.378213        -2.147348         0.725222
 H        -2.699637        -2.435449         2.154405
 H        -3.729976        -1.113424         1.971528
 H        -1.328472        -0.266821         2.179276
 H        -2.925434         0.588792         0.081617
 H        -0.728215         1.829180        -0.941872
 H        -0.503742         1.858618         0.773823
 H        -0.290186        -3.157557         1.085480
 H        -1.104032        -3.166630        -0.265372
 H         0.593936        -2.687823        -0.455840
