19
Iteration:  3209
 C        -2.922053        -1.639880         1.436477
 C        -1.758369        -0.683333         1.205738
 C        -1.918265         0.318534         0.049608
 C        -0.735097         1.211925        -0.123231
 C         0.259254         0.078409         0.046659
 O         1.516471         0.013240         0.013015
 C        -0.673638        -1.159095         0.218098
 C        -0.240722        -2.635376         0.267300
 O        -1.597375        -0.682944        -0.972349
 H        -3.379571        -2.092987         0.520122
 H        -2.525038        -2.455284         2.109411
 H        -3.771542        -1.130638         1.945556
 H        -1.490190        -0.046362         2.050919
 H        -2.853457         0.740913         0.096470
 H        -0.501737         1.654391        -1.144862
 H        -0.608738         2.092009         0.581604
 H         0.837193        -2.661226         0.465371
 H        -0.822964        -3.241162         0.945494
 H        -0.488328        -3.073706        -0.706594
