19
Iteration:  4024
 C        -3.030394        -1.619729         1.553486
 C        -1.798828        -0.698335         1.172838
 C        -2.052046         0.357087         0.027163
 C        -0.657231         1.244441        -0.079446
 C         0.320545        -0.032682         0.052046
 O         1.498567        -0.098908        -0.003594
 C        -0.661775        -1.162271         0.131980
 C        -0.047060        -2.494557         0.133790
 O        -1.671454        -0.717510        -0.905764
 H        -3.670144        -1.633536         0.648978
 H        -2.721722        -2.570308         2.067669
 H        -3.538508        -0.975346         2.272372
 H        -1.384044        -0.261658         2.217390
 H        -3.050455         0.900410        -0.006861
 H        -0.472392         1.880324        -1.041109
 H        -0.530500         1.910828         0.839405
 H         0.786716        -2.439940         0.934426
 H        -0.791452        -3.275059         0.282524
 H         0.488219        -2.645516        -0.848231
