19
Iteration:  2163charge 0 multiplicity 1
 C        -2.851326        -1.602274         1.489803
 C        -1.759092        -0.551842         1.257752
 C        -2.007345         0.361704         0.053648
 C        -0.680448         1.199394         0.035252
 C         0.326253         0.030551         0.091676
 O         1.498112         0.059108        -0.087192
 C        -0.677737        -1.154375         0.202897
 C        -0.284254        -2.657205         0.030403
 O        -1.661804        -0.810290        -0.888005
 H        -3.349788        -1.562619         2.415125
 H        -3.670584        -1.511801         0.774051
 H        -2.406864        -2.556405         1.334720
 H        -1.228304        -0.244326         2.196721
 H        -3.016616         0.878079        -0.199943
 H        -0.465112         1.578556        -0.990128
 H        -0.471339         1.968657         0.819601
 H         0.741501        -2.750871         0.267982
 H        -0.730805        -3.259047         0.752475
 H        -0.346989        -3.066864        -0.979628
