19
Iteration:  1038charge 0 multiplicity 1
 C        -2.921079        -1.604029         1.733762
 C        -1.818105        -0.571871         1.158260
 C        -2.066275         0.345571        -0.106289
 C        -0.739003         1.158235        -0.076338
 C         0.288935        -0.052916         0.105149
 O         1.520648        -0.014599         0.140444
 C        -0.696745        -1.173627         0.118244
 C        -0.112627        -2.570669         0.053870
 O        -1.592747        -0.701422        -1.027693
 H        -2.482248        -2.542626         2.154214
 H        -3.570788        -1.154148         2.486163
 H        -3.504820        -1.956306         0.882312
 H        -1.260676        -0.140150         2.020763
 H        -3.061847         0.829719        -0.291574
 H        -0.616855         1.800989        -1.011725
 H        -0.606896         1.835912         0.687554
 H         0.963529        -2.408033         0.103700
 H        -0.377786        -3.144326         0.956306
 H        -0.320016        -3.070672        -0.910133
