19
Iteration:  3047charge 0 multiplicity 1
 C        -2.837589        -1.653619         1.515779
 C        -1.683315        -0.597478         1.223258
 C        -1.922644         0.381513         0.042336
 C        -0.706195         1.192772        -0.283683
 C         0.310226         0.044544        -0.074545
 O         1.443288         0.088117         0.268099
 C        -0.696927        -1.142317         0.173573
 C        -0.307096        -2.663334         0.156654
 O        -1.636643        -0.762535        -0.915765
 H        -3.398156        -1.862708         0.592540
 H        -2.543635        -2.574923         2.013633
 H        -3.632955        -1.161348         2.079142
 H        -1.144358        -0.321032         2.152907
 H        -2.870141         0.882628        -0.036289
 H        -0.834992         1.161148        -1.298006
 H        -0.512488         2.114439         0.199538
 H        -0.177824        -3.049884         1.245179
 H        -1.039185        -3.253148        -0.437772
 H         0.602323        -2.919202        -0.456433
