19
Iteration:  2665charge 0 multiplicity 1
 C        -3.073123        -1.497397         1.434746
 C        -1.714507        -0.633055         1.219145
 C        -1.903758         0.301876        -0.051399
 C        -0.770276         1.147449        -0.014789
 C         0.310952         0.024714         0.068619
 O         1.511721         0.173518        -0.003997
 C        -0.644105        -1.190737         0.293311
 C        -0.200700        -2.614029         0.102518
 O        -1.570107        -0.900897        -0.877451
 H        -3.797211        -1.352880         0.574770
 H        -2.923247        -2.616635         1.554018
 H        -3.464762        -1.053306         2.388103
 H        -1.469558        -0.216412         2.260150
 H        -2.803984         0.895103        -0.342095
 H        -0.579137         1.554831        -1.032307
 H        -0.510273         1.891347         0.805838
 H         0.796440        -2.817455         0.436493
 H        -0.991240        -3.317651         0.502706
 H        -0.139855        -2.833135        -0.942585
