19
Iteration:  3615charge 0 multiplicity 1
 C        -2.802817        -1.609766         1.629730
 C        -1.744932        -0.643578         1.194357
 C        -1.964344         0.410343        -0.000289
 C        -0.722783         1.203153        -0.228891
 C         0.247058         0.026866         0.038414
 O         1.470077        -0.014567         0.246759
 C        -0.717441        -1.167839         0.126357
 C        -0.205051        -2.615609         0.035194
 O        -1.687440        -0.751660        -0.937313
 H        -3.154518        -2.238449         0.837570
 H        -2.567666        -2.320148         2.384603
 H        -3.636600        -1.037279         2.069557
 H        -1.090523        -0.127140         2.005182
 H        -2.930387         0.862210        -0.225357
 H        -0.649543         1.743500        -1.255180
 H        -0.103400         1.969540         0.352325
 H         0.195566        -2.837527         1.011000
 H        -1.008964        -3.266778        -0.211829
 H         0.571343        -2.769031        -0.727163
