19
Iteration:  4102
 C        -2.884409        -1.595627         1.553887
 C        -1.725570        -0.649366         1.191671
 C        -2.008926         0.334160         0.030414
 C        -0.712032         1.156635        -0.084571
 C         0.367248         0.079930         0.120725
 O         1.566987         0.100660         0.005084
 C        -0.703586        -1.187221         0.145531
 C        -0.320206        -2.632524         0.077518
 O        -1.662054        -0.757739        -0.913397
 H        -3.158130        -2.103504         0.615578
 H        -2.614583        -2.237329         2.441035
 H        -3.749449        -1.068292         1.910702
 H        -1.153347        -0.408867         2.224491
 H        -2.979357         0.778029        -0.199920
 H        -0.506662         1.574160        -1.166877
 H        -0.497727         1.874150         0.732701
 H        -0.079590        -2.972037         1.122767
 H        -1.142508        -3.332355        -0.202197
 H         0.485001        -2.694782        -0.644469
