19
Iteration:  3956
 C        -2.943910        -1.639289         1.635374
 C        -1.766285        -0.658180         1.185973
 C        -1.950929         0.331439         0.091104
 C        -0.701876         1.214342        -0.183557
 C         0.315229         0.025469         0.004128
 O         1.575524         0.107342         0.145253
 C        -0.713417        -1.169643         0.122443
 C        -0.296477        -2.645207         0.037490
 O        -1.592477        -0.729331        -0.957997
 H        -3.313170        -2.226641         0.752513
 H        -2.659345        -2.266779         2.518269
 H        -3.888607        -1.084882         1.913711
 H        -1.481945        -0.111467         2.236932
 H        -3.023055         0.618932        -0.183740
 H        -0.546551         1.779003        -1.104974
 H        -0.442641         1.770064         0.788216
 H         0.618010        -2.723981         0.654497
 H        -1.042883        -3.398871         0.449575
 H        -0.019775        -2.942503        -1.013469
