19
Iteration:  4670
 C        -2.838384        -1.626731         1.484683
 C        -1.853768        -0.593757         1.201326
 C        -2.019496         0.371440        -0.057646
 C        -0.697262         1.190204         0.057891
 C         0.247175        -0.003144         0.097827
 O         1.485469        -0.095990        -0.076067
 C        -0.706139        -1.123679         0.215421
 C        -0.219752        -2.517011         0.193944
 O        -1.541147        -0.760487        -0.951299
 H        -3.088593        -1.825403         0.482085
 H        -2.498632        -2.400614         2.117496
 H        -3.702585        -1.192777         1.924585
 H        -1.408350        -0.275815         2.105181
 H        -2.964979         0.858104        -0.264336
 H        -0.377781         1.908432        -0.760833
 H        -0.537950         1.924419         0.896166
 H         0.518507        -2.752216         1.009145
 H        -1.036478        -3.239291         0.163514
 H         0.268597        -2.710518        -0.835408
