19
Iteration:  2807charge 0 multiplicity 1
 C        -2.992147        -1.479597         1.649065
 C        -1.754672        -0.722588         1.169437
 C        -1.897505         0.282628        -0.008264
 C        -0.711184         1.125925        -0.129434
 C         0.356221         0.063367         0.052236
 O         1.521988         0.158576         0.201666
 C        -0.735121        -1.309966         0.096929
 C        -0.208144        -2.656593         0.065359
 O        -1.658079        -0.709053        -0.979490
 H        -3.398775        -2.126677         0.855960
 H        -2.695474        -2.058196         2.520585
 H        -3.607543        -0.670741         2.006057
 H        -1.295562        -0.177926         2.033648
 H        -2.837400         0.759940        -0.150387
 H        -0.695104         1.236586        -1.205348
 H        -0.563413         2.176525         0.384681
 H         0.135928        -3.108072         0.931066
 H        -0.966230        -3.227369        -0.399308
 H         0.643055        -2.670327        -0.548023
