19
Iteration:  4168charge 0 multiplicity 1
 C        -2.845990        -1.475569         1.580352
 C        -1.762346        -0.577649         1.188371
 C        -2.087894         0.377767        -0.031694
 C        -0.673989         1.178735        -0.057278
 C         0.269991         0.010519         0.103764
 O         1.498774        -0.131567         0.176438
 C        -0.691239        -1.135561         0.101297
 C        -0.052275        -2.539291        -0.005934
 O        -1.774833        -0.876677        -0.932881
 H        -3.452349        -1.556621         0.738619
 H        -2.410270        -2.341602         1.974126
 H        -3.401966        -1.125667         2.388663
 H        -1.252596        -0.021246         1.984487
 H        -3.049199         0.825539        -0.203744
 H        -0.444395         1.811186        -0.969324
 H        -0.551559         1.962656         0.680989
 H         0.832087        -2.603266         0.631528
 H        -0.737930        -3.419079         0.098390
 H         0.231988        -2.516191        -1.038163
