19
Iteration:   755
 C        -2.838857        -1.545690         1.543739
 C        -1.810985        -0.517232         1.141731
 C        -2.025080         0.346696        -0.048407
 C        -0.770507         1.322468         0.042256
 C         0.218832        -0.001250         0.034613
 O         1.439454        -0.108824         0.083380
 C        -0.660701        -1.177273         0.167939
 C        -0.050958        -2.592765         0.106391
 O        -1.628870        -0.851056        -0.952051
 H        -2.698253        -2.019600         2.539431
 H        -3.826972        -1.089582         1.567195
 H        -2.842297        -2.337854         0.768983
 H        -1.314235        -0.048476         2.015174
 H        -3.008651         0.702889        -0.355643
 H        -0.593245         1.978399        -0.943750
 H        -0.764359         1.961718         0.924984
 H         0.877358        -2.585981         0.676465
 H        -0.643237        -3.464465         0.497510
 H         0.328615        -2.801426        -0.926764
