19
Iteration:  4222charge 0 multiplicity 1
 C        -2.841119        -1.552004         1.557681
 C        -1.675176        -0.633157         1.190791
 C        -1.942910         0.321391        -0.010283
 C        -0.749591         1.225895        -0.096239
 C         0.308091         0.047304         0.131535
 O         1.568007         0.053123         0.201166
 C        -0.660881        -1.203952         0.017668
 C        -0.381585        -2.675947         0.020327
 O        -1.686498        -0.742913        -0.926638
 H        -3.019145        -2.240246         0.775267
 H        -2.507495        -2.186498         2.371189
 H        -3.617739        -0.887010         1.858161
 H        -1.203750        -0.161622         1.980583
 H        -2.937536         0.712015        -0.073309
 H        -0.779051         1.458229        -1.177299
 H        -0.855426         1.995231         0.617561
 H         0.661524        -2.710592         0.368588
 H        -0.884265        -3.232688         0.832473
 H        -0.409646        -3.098957        -0.956152
