19
Iteration:  2753charge 0 multiplicity 1
 C        -2.730155        -1.612041         1.505897
 C        -1.728828        -0.511767         1.163055
 C        -2.072604         0.370968        -0.060219
 C        -0.718889         1.199569        -0.194070
 C         0.270860         0.017703         0.106686
 O         1.481051        -0.123460         0.209204
 C        -0.705548        -1.141959         0.145785
 C        -0.183028        -2.544501         0.135504
 O        -1.716500        -0.761128        -0.933106
 H        -2.829476        -2.346517         0.667994
 H        -2.417129        -2.122565         2.429570
 H        -3.751264        -1.167447         1.674352
 H        -1.227508        -0.052063         2.035583
 H        -3.081257         0.719784        -0.138592
 H        -0.495435         1.760893        -1.071824
 H        -0.461319         1.796711         0.759100
 H        -0.050369        -3.025888         1.113337
 H        -0.958021        -3.153026        -0.297391
 H         0.682324        -2.630385        -0.494605
