19
Iteration:  3065
 C        -2.801192        -1.548571         1.524373
 C        -1.707200        -0.646835         1.211182
 C        -1.992571         0.315527         0.018477
 C        -0.723355         1.195323        -0.335550
 C         0.286987         0.028162         0.113352
 O         1.485476         0.086738         0.232307
 C        -0.632637        -1.222200         0.146385
 C        -0.301644        -2.667736         0.104596
 O        -1.658769        -0.725749        -0.910297
 H        -3.250470        -2.163422         0.698895
 H        -2.350605        -2.281508         2.292355
 H        -3.714425        -1.161095         2.020592
 H        -1.409342        -0.055686         2.106543
 H        -3.005019         0.662633        -0.163406
 H        -0.646385         1.601403        -1.427480
 H        -0.362324         2.005378         0.406425
 H        -0.169257        -2.967073         1.152162
 H        -1.222323        -3.113712        -0.405108
 H         0.594839        -2.781141        -0.496027
