19
Iteration:  1659charge 0 multiplicity 1
 C        -2.883600        -1.544527         1.594167
 C        -1.748003        -0.605246         1.173562
 C        -2.034993         0.302406         0.000371
 C        -0.696484         1.132149        -0.108070
 C         0.242982         0.084209         0.081965
 O         1.470720        -0.068252         0.059154
 C        -0.708653        -1.144427         0.209146
 C        -0.113499        -2.569620         0.027741
 O        -1.630904        -0.734636        -0.938422
 H        -2.454548        -2.573421         1.695925
 H        -3.247748        -1.253857         2.592649
 H        -3.798072        -1.761328         1.046256
 H        -1.327806        -0.083621         2.078181
 H        -2.989733         0.861347        -0.125194
 H        -0.551943         1.656637        -1.087927
 H        -0.632056         1.945005         0.608569
 H         0.781792        -2.639962         0.718108
 H        -0.800401        -3.327393         0.518861
 H         0.118845        -2.874754        -1.001893
