19
Iteration:  1646charge 0 multiplicity 1
 C        -2.938211        -1.587204         1.651038
 C        -1.818320        -0.621627         1.231020
 C        -1.930749         0.363065         0.018352
 C        -0.707619         1.247599        -0.087588
 C         0.268255        -0.054017         0.084138
 O         1.519389         0.095500         0.030364
 C        -0.711528        -1.242849         0.119533
 C        -0.159862        -2.617373         0.088160
 O        -1.627176        -0.776315        -0.941901
 H        -2.570435        -2.601346         1.785263
 H        -3.453155        -1.276422         2.566330
 H        -3.562723        -1.518631         0.771596
 H        -1.382653        -0.157635         2.080006
 H        -2.946944         0.778364        -0.376895
 H        -0.691262         1.456902        -1.147178
 H        -0.399801         2.149679         0.536154
 H         0.875256        -2.732314         0.373089
 H        -0.843891        -3.358517         0.436614
 H        -0.093071        -2.734976        -0.967899
