19
Iteration:  3627
 C        -2.778852        -1.664061         1.648123
 C        -1.664828        -0.602609         1.138948
 C        -2.034631         0.384658        -0.060403
 C        -0.647242         1.226868        -0.152022
 C         0.262648        -0.010460         0.039026
 O         1.410245        -0.053624         0.218540
 C        -0.723212        -1.155671         0.092631
 C        -0.233535        -2.579911         0.088475
 O        -1.651580        -0.706635        -0.944275
 H        -3.371707        -1.993712         0.840021
 H        -2.276698        -2.356551         2.272909
 H        -3.453951        -1.024534         2.242416
 H        -1.252360        -0.270528         2.180917
 H        -2.955773         0.931791        -0.392403
 H        -0.712286         1.309115        -1.282549
 H        -0.774207         2.183273         0.551744
 H         0.116784        -2.854733         1.046337
 H        -1.011356        -3.293132        -0.105110
 H         0.617126        -2.690149        -0.554001
