19
Iteration:  4947
 C        -3.012068        -1.619383         1.475297
 C        -1.756316        -0.646633         1.154233
 C        -1.947348         0.359721        -0.000451
 C        -0.684780         1.225342         0.119484
 C         0.278117        -0.021151        -0.054629
 O         1.460976        -0.046586        -0.088178
 C        -0.730816        -1.205803         0.158887
 C        -0.129180        -2.572456         0.267125
 O        -1.547100        -0.671487        -0.979669
 H        -3.645046        -1.802475         0.578310
 H        -2.761563        -2.504602         2.014978
 H        -3.599503        -0.982625         2.146762
 H        -1.470915        -0.214669         2.106404
 H        -2.857688         0.996044        -0.031375
 H        -0.864993         1.760397        -0.824054
 H        -0.551211         1.683820         1.118921
 H         0.816890        -2.385797         0.856050
 H        -0.648355        -3.277399         1.050212
 H        -0.016569        -3.057998        -0.660193
