19
Iteration:  1217
 C        -2.928227        -1.494335         1.573152
 C        -1.658323        -0.787112         1.314623
 C        -1.922747         0.314546         0.078811
 C        -0.755008         1.236727        -0.136180
 C         0.238698         0.084544         0.098175
 O         1.433286         0.154994        -0.014370
 C        -0.644560        -1.197403         0.181334
 C        -0.288479        -2.700696         0.066931
 O        -1.526558        -0.781297        -0.972689
 H        -2.709634        -2.354341         2.184206
 H        -3.714212        -0.868461         1.966491
 H        -3.399489        -1.882984         0.678102
 H        -1.190265        -0.463310         2.272786
 H        -2.954543         0.895021        -0.060492
 H        -0.654537         1.458708        -1.143992
 H        -0.586840         1.983260         0.565037
 H        -0.304788        -3.313308         0.981338
 H        -0.994426        -3.085298        -0.717229
 H         0.740297        -2.856257        -0.330638
