19
Iteration:   405charge 0 multiplicity 1
 C        -2.795585        -1.515684         1.652339
 C        -1.744004        -0.592028         1.183468
 C        -1.978803         0.241922        -0.031107
 C        -0.746554         1.116624        -0.232724
 C         0.291268         0.047238         0.033835
 O         1.457829         0.103864         0.314614
 C        -0.627717        -1.172669         0.106637
 C        -0.223510        -2.574245         0.013089
 O        -1.688463        -0.829842        -0.949035
 H        -2.480674        -1.959553         2.616022
 H        -3.748072        -0.948347         1.792576
 H        -2.967299        -2.343407         0.935176
 H        -1.382488        -0.075780         2.081610
 H        -2.895241         0.712941        -0.260288
 H        -0.735259         1.456798        -1.368475
 H        -0.647065         1.859931         0.526758
 H         0.405413        -2.846110         0.874550
 H        -1.010003        -3.287852        -0.075523
 H         0.278973        -2.604056        -0.946530
