19
Iteration:  3225charge 0 multiplicity 1
 C        -2.947161        -1.643324         1.571599
 C        -1.795944        -0.616599         1.168522
 C        -2.090721         0.370694         0.003991
 C        -0.710416         1.217795        -0.044204
 C         0.288758        -0.022046         0.042762
 O         1.545419        -0.014045         0.029427
 C        -0.710016        -1.164685         0.154694
 C        -0.168765        -2.600756         0.193944
 O        -1.546857        -0.695932        -0.989064
 H        -3.193624        -2.165615         0.648431
 H        -2.623037        -2.267323         2.410229
 H        -3.823717        -1.025272         1.844572
 H        -1.307598        -0.314224         2.149146
 H        -3.021414         0.847578        -0.530611
 H        -0.782544         1.795774        -0.934426
 H        -0.503740         1.996269         0.666787
 H         0.945505        -2.702253         0.500387
 H        -0.679031        -3.174391         1.021284
 H        -0.144248        -3.159872        -0.796204
