19
Iteration:  3853charge 0 multiplicity 1
 C        -2.934482        -1.489292         1.562042
 C        -1.726138        -0.627860         1.240753
 C        -1.953461         0.221606         0.085185
 C        -0.666844         1.168130        -0.216526
 C         0.295923         0.024533         0.041104
 O         1.467255         0.063788         0.193415
 C        -0.679127        -1.151747         0.130946
 C        -0.150807        -2.638966        -0.047244
 O        -1.710611        -0.758375        -0.894917
 H        -3.729995        -1.431480         0.764261
 H        -2.644796        -2.568352         1.730302
 H        -3.404839        -0.917427         2.442379
 H        -1.125006        -0.411269         2.225416
 H        -2.933775         0.662121        -0.010239
 H        -0.704662         1.589614        -1.238233
 H        -0.601597         1.958018         0.483401
 H         0.377899        -2.775961         0.960366
 H        -0.991585        -3.325513        -0.170649
 H         0.659798        -2.780184        -0.789039
