19
Iteration:    90charge 0 multiplicity 1
 C        -2.741570        -1.512290         1.733749
 C        -1.796002        -0.529259         1.091792
 C        -2.088760         0.252083        -0.192116
 C        -0.744410         1.165753        -0.003166
 C         0.268666        -0.034904         0.010094
 O         1.415078        -0.019860         0.304931
 C        -0.732214        -1.160081         0.056607
 C        -0.071944        -2.506691         0.050032
 O        -1.637249        -0.830892        -1.049696
 H        -2.341464        -2.090260         2.548904
 H        -3.516832        -0.927996         2.238539
 H        -3.261522        -2.139164         1.014923
 H        -1.324777         0.127216         1.804155
 H        -3.074270         0.672703        -0.468688
 H        -0.517050         1.893886        -0.641979
 H        -0.568439         1.397121         1.037564
 H         0.859223        -2.432055         0.608551
 H        -0.798088        -3.226774         0.456483
 H         0.196312        -2.800632        -0.926688
