19
Iteration:   347charge 0 multiplicity 1
 C        -2.745647        -1.508414         1.763354
 C        -1.760880        -0.509767         1.151888
 C        -2.109214         0.269938        -0.173513
 C        -0.804999         1.113783        -0.099159
 C         0.256986        -0.019015         0.061038
 O         1.450463        -0.049919         0.312493
 C        -0.651796        -1.131431         0.008457
 C        -0.135613        -2.469465         0.089619
 O        -1.642303        -0.864252        -1.047598
 H        -2.247795        -2.438734         2.138521
 H        -3.408501        -1.121084         2.600311
 H        -3.401352        -1.772407         0.898551
 H        -1.248283         0.174461         1.909414
 H        -3.099321         0.478872        -0.560566
 H        -0.434198         1.839886        -0.932925
 H        -0.745814         1.861910         0.778377
 H         0.698440        -2.563680         0.769291
 H        -0.898353        -3.292301         0.097554
 H         0.492193        -2.532431        -0.831819
