19
Iteration:   996
 C        -2.758881        -1.580674         1.474759
 C        -1.649427        -0.625155         1.222433
 C        -1.995373         0.321419         0.050792
 C        -0.722993         1.215855        -0.214032
 C         0.289330         0.040574         0.047545
 O         1.459508        -0.094060         0.279796
 C        -0.749519        -1.144225         0.026883
 C        -0.140316        -2.462417         0.109763
 O        -1.782469        -0.815060        -0.905590
 H        -2.563982        -2.544484         1.954548
 H        -3.539658        -1.129827         2.067650
 H        -3.152479        -1.806242         0.485729
 H        -1.246990        -0.085912         2.067407
 H        -3.016199         0.760554        -0.264069
 H        -0.606629         1.735687        -1.218507
 H        -0.618168         1.964680         0.623315
 H         0.963663        -2.464293         0.284113
 H        -0.604837        -3.084469         0.902235
 H        -0.495393        -3.026698        -0.775351
