19
Iteration:  1865charge 0 multiplicity 1
 C        -2.986233        -1.610387         1.472505
 C        -1.770563        -0.611137         1.316924
 C        -1.993183         0.309300         0.096900
 C        -0.693972         1.143807        -0.098419
 C         0.381499         0.084210        -0.033626
 O         1.575423         0.148301        -0.042161
 C        -0.680958        -1.198212         0.206961
 C        -0.225345        -2.608135         0.126138
 O        -1.624943        -0.824735        -0.858088
 H        -2.691142        -2.650093         1.262735
 H        -3.509595        -1.548937         2.423148
 H        -3.697762        -1.337272         0.709869
 H        -1.436966        -0.113066         2.237259
 H        -2.947417         0.885567        -0.306280
 H        -0.962636         1.588806        -1.117878
 H        -0.391076         1.926050         0.642547
 H         0.741302        -2.984612         0.368263
 H        -0.950446        -3.191460         0.692454
 H        -0.496710        -2.899818        -0.828429
