19
Iteration:   873
 C        -2.960083        -1.671731         1.580023
 C        -1.819893        -0.615912         1.170214
 C        -1.985378         0.331534         0.006255
 C        -0.707300         1.170427        -0.092169
 C         0.297143         0.002152         0.001566
 O         1.534393        -0.045919         0.041337
 C        -0.650863        -1.112496         0.079344
 C        -0.023973        -2.557502         0.259709
 O        -1.776428        -0.655430        -0.948117
 H        -2.554175        -2.645271         1.835822
 H        -3.618046        -1.392580         2.385381
 H        -3.547968        -1.959229         0.708073
 H        -1.386429        -0.157859         2.036115
 H        -2.856607         0.911972         0.031213
 H        -0.660299         1.616237        -1.187475
 H        -0.592566         2.010408         0.495703
 H         0.076890        -2.851490         1.283388
 H        -0.557129        -3.354852        -0.282991
 H         0.998755        -2.547885        -0.135484
