19
Iteration:  2126charge 0 multiplicity 1
 C        -2.999675        -1.518580         1.476079
 C        -1.726314        -0.757678         1.310372
 C        -2.010995         0.337560         0.180030
 C        -0.747404         1.167235         0.018428
 C         0.365843         0.061791        -0.054212
 O         1.539033         0.071964        -0.114909
 C        -0.652998        -1.230473         0.142287
 C        -0.184447        -2.618475         0.002178
 O        -1.601656        -0.708286        -0.829408
 H        -3.859290        -0.818094         1.781401
 H        -3.192591        -1.969727         0.508750
 H        -3.097481        -2.274967         2.294987
 H        -1.351374        -0.400220         2.304037
 H        -3.105260         0.639163         0.043465
 H        -0.708516         1.589085        -1.033651
 H        -0.570733         1.980215         0.709369
 H         0.830988        -2.609796         0.558227
 H        -0.961152        -3.132840         0.696557
 H        -0.271152        -3.153287        -0.934331
