19
Iteration:  1253charge 0 multiplicity 1
 C        -2.863533        -1.579576         1.530792
 C        -1.769946        -0.580425         1.269697
 C        -1.967283         0.385487         0.054139
 C        -0.718553         1.135286        -0.091799
 C         0.298373         0.054754         0.007347
 O         1.547629        -0.018657         0.073949
 C        -0.685566        -1.194469         0.205266
 C        -0.125697        -2.565644         0.056318
 O        -1.805196        -0.791135        -0.969802
 H        -2.536634        -2.111978         2.449018
 H        -3.824087        -1.202674         1.890162
 H        -2.810917        -2.263588         0.695799
 H        -1.456237        -0.153677         2.210762
 H        -2.882997         0.837663        -0.257734
 H        -0.648522         1.798280        -0.921452
 H        -0.571373         1.881963         0.730444
 H         0.028186        -3.106769         0.979959
 H        -0.788465        -3.221348        -0.578389
 H         0.823855        -2.405213        -0.521832
