19
Iteration:  1499charge 0 multiplicity 1
 C        -2.926240        -1.532752         1.565636
 C        -1.686100        -0.670116         1.232158
 C        -1.938908         0.314374         0.037552
 C        -0.731602         1.171654        -0.022957
 C         0.351589         0.070326         0.013638
 O         1.559801         0.205202         0.033088
 C        -0.727654        -1.188296         0.067966
 C        -0.271441        -2.695201         0.096291
 O        -1.686261        -0.870352        -0.893743
 H        -2.748406        -2.607356         1.883838
 H        -3.391353        -0.855277         2.306177
 H        -3.664138        -1.556000         0.738628
 H        -1.284853        -0.109259         2.064697
 H        -2.912344         0.664320        -0.053288
 H        -0.850062         1.648879        -1.119484
 H        -0.347788         1.999623         0.639822
 H         0.128940        -3.121475         0.993061
 H        -1.101374        -3.350033        -0.271960
 H         0.592632        -2.747211        -0.569248
