19
Iteration:  4447
 C        -2.994109        -1.544471         1.520383
 C        -1.695493        -0.692176         1.219500
 C        -1.966757         0.343114         0.032200
 C        -0.687007         1.189354        -0.055796
 C         0.255921        -0.010616         0.112957
 O         1.525546        -0.046920         0.077882
 C        -0.774371        -1.211274         0.149186
 C        -0.068671        -2.528813         0.083585
 O        -1.699311        -0.709805        -0.985807
 H        -3.568801        -1.699308         0.603678
 H        -2.817360        -2.477263         2.035958
 H        -3.552538        -0.874535         2.163985
 H        -1.144146        -0.308559         2.034258
 H        -2.945095         0.780040        -0.020155
 H        -0.678616         1.414635        -1.095819
 H        -0.524281         2.274397         0.397630
 H         0.833863        -2.481982         0.757278
 H        -0.706311        -3.299675         0.540873
 H         0.276995        -2.803155        -0.909885
