19
Iteration:  3204charge 0 multiplicity 1
 C        -2.949123        -1.656754         1.407079
 C        -1.696512        -0.653140         1.176590
 C        -1.886110         0.292765         0.042721
 C        -0.712521         1.212463        -0.120956
 C         0.280548         0.041880         0.062807
 O         1.481663         0.037916         0.007877
 C        -0.693916        -1.154740         0.248249
 C        -0.262610        -2.600976         0.246800
 O        -1.617306        -0.703936        -0.932163
 H        -3.334112        -2.007801         0.465160
 H        -2.470907        -2.414364         1.994959
 H        -3.733567        -1.170418         1.974876
 H        -1.421574        -0.097261         2.099221
 H        -2.928243         0.834631         0.016500
 H        -0.587893         1.662069        -1.099841
 H        -0.675323         2.112324         0.509834
 H         0.805866        -2.813004         0.463423
 H        -0.805319        -3.154329         1.048573
 H        -0.402374        -3.108966        -0.720386
