19
Iteration:  4329
 C        -2.876298        -1.503151         1.470857
 C        -1.705899        -0.558981         1.152579
 C        -1.931012         0.311239        -0.034294
 C        -0.722002         1.154066         0.033737
 C         0.303793         0.041163         0.102332
 O         1.521341         0.015261         0.004086
 C        -0.744695        -1.206265         0.136717
 C        -0.119667        -2.644354         0.139227
 O        -1.785091        -0.785926        -0.898090
 H        -3.548487        -1.621676         0.603793
 H        -2.612210        -2.456173         1.980055
 H        -3.544908        -1.001533         2.207845
 H        -1.269485        -0.130640         2.103354
 H        -2.880711         0.808339        -0.118305
 H        -0.490036         1.789303        -0.824072
 H        -0.784688         1.833128         0.836229
 H         0.268981        -3.011178         1.096354
 H        -0.838480        -3.342654        -0.351774
 H         0.696914        -2.700155        -0.521406
