19
Iteration:  4909charge 0 multiplicity 1
 C        -2.982285        -1.532877         1.455808
 C        -1.858775        -0.612255         1.222321
 C        -1.918770         0.304123         0.009648
 C        -0.683041         1.211939        -0.000913
 C         0.336970         0.025843         0.112807
 O         1.510159        -0.043450        -0.037881
 C        -0.705797        -1.154767         0.252677
 C        -0.125591        -2.562666         0.032216
 O        -1.659941        -0.828197        -0.865934
 H        -3.217273        -2.249385         0.652753
 H        -2.879987        -2.120471         2.463487
 H        -3.860867        -0.787069         1.599552
 H        -1.395817        -0.177436         2.168295
 H        -2.840620         0.866301        -0.155045
 H        -0.398823         1.806237        -0.826709
 H        -0.789881         2.103430         0.590712
 H         0.831059        -2.664433         0.486544
 H        -0.837960        -3.269485         0.198171
 H         0.264257        -2.758301        -1.003872
