19
Iteration:  1732
 C        -2.827704        -1.547101         1.640155
 C        -1.748969        -0.642872         1.282283
 C        -1.925305         0.297919         0.117878
 C        -0.724898         1.222452        -0.191737
 C         0.338682         0.083323         0.018368
 O         1.512884         0.124256         0.133810
 C        -0.674537        -1.232710         0.063530
 C        -0.334987        -2.671970         0.008831
 O        -1.674083        -0.806621        -0.945240
 H        -2.642068        -2.159315         2.484036
 H        -3.807447        -1.093223         1.761031
 H        -2.963397        -2.289683         0.857947
 H        -1.333017        -0.161245         2.156630
 H        -2.988626         0.769673         0.022264
 H        -0.635733         1.504929        -1.222946
 H        -0.456980         2.150585         0.427590
 H        -0.123930        -3.003228         0.989297
 H        -1.032251        -3.283670        -0.474045
 H         0.567234        -2.660685        -0.563508
