19
Iteration:  1380charge 0 multiplicity 1
 C        -2.953601        -1.556621         1.575619
 C        -1.662361        -0.655267         1.293615
 C        -2.032454         0.334866         0.037636
 C        -0.732924         1.254679        -0.099129
 C         0.240458         0.033316         0.055214
 O         1.508544         0.006895         0.086145
 C        -0.676371        -1.184582         0.149896
 C        -0.139871        -2.588512         0.020746
 O        -1.641305        -0.795494        -0.951987
 H        -2.707587        -2.249754         2.380107
 H        -3.772343        -0.878032         1.770221
 H        -3.323656        -2.110892         0.717063
 H        -1.041811        -0.481779         2.191150
 H        -3.109695         0.691503        -0.010849
 H        -0.762120         1.638307        -1.161160
 H        -0.376223         2.142278         0.433986
 H         0.831839        -2.622687         0.427133
 H        -0.850280        -3.324215         0.460306
 H        -0.047859        -2.879545        -1.029502
