19
Iteration:  4981
 C        -2.917043        -1.638323         1.370676
 C        -1.773909        -0.572471         1.195511
 C        -1.927300         0.375904        -0.008272
 C        -0.669771         1.171423         0.035086
 C         0.307494         0.005381         0.106979
 O         1.477213        -0.013414        -0.107768
 C        -0.721435        -1.175859         0.238292
 C        -0.222689        -2.563179         0.199212
 O        -1.614778        -0.768639        -0.862066
 H        -3.663555        -1.727256         0.601018
 H        -2.653883        -2.633130         1.548279
 H        -3.448825        -1.405800         2.267293
 H        -1.494023         0.015078         2.033465
 H        -2.887773         0.860177        -0.305133
 H        -0.522286         1.793042        -0.870505
 H        -0.613225         2.012543         0.702805
 H         0.786780        -2.451746         0.605348
 H        -0.946021        -3.267642         0.796447
 H        -0.027603        -2.956893        -0.787797
