19
Iteration:  3582
 C        -2.858757        -1.439947         1.560697
 C        -1.667799        -0.663618         1.226623
 C        -2.004432         0.356204        -0.000798
 C        -0.738658         1.133825        -0.153373
 C         0.273057         0.018799         0.095800
 O         1.531819         0.065737         0.210465
 C        -0.685847        -1.227385         0.103071
 C        -0.165263        -2.610257        -0.071249
 O        -1.745878        -0.865248        -0.843783
 H        -3.037771        -2.091461         0.719429
 H        -2.898139        -1.908556         2.516904
 H        -3.789529        -0.865109         1.477405
 H        -1.356294         0.022485         2.158129
 H        -2.976225         0.796103        -0.181085
 H        -0.491841         1.585085        -1.217138
 H        -0.319255         1.984395         0.586332
 H         0.506723        -2.834876         0.745800
 H        -1.039416        -3.165358         0.011008
 H         0.228551        -2.587091        -1.078252
