19
Iteration:  4491
 C        -2.846467        -1.516437         1.519321
 C        -1.716250        -0.542448         1.231818
 C        -1.980425         0.354026        -0.032908
 C        -0.701274         1.244685        -0.123304
 C         0.301568        -0.007293         0.061851
 O         1.486671         0.067570         0.208879
 C        -0.684933        -1.223696         0.168905
 C        -0.266401        -2.677693        -0.010743
 O        -1.674355        -0.853826        -0.871929
 H        -3.228885        -1.695839         0.498812
 H        -2.504114        -2.496140         1.867714
 H        -3.657180        -1.097342         2.126418
 H        -1.349323        -0.031744         2.084349
 H        -2.996617         0.694303        -0.236734
 H        -0.418927         1.655551        -1.060995
 H        -0.607557         1.913155         0.842881
 H         0.838390        -2.768639         0.144695
 H        -0.822305        -3.576748         0.400807
 H        -0.291437        -2.628314        -1.102955
