19
Iteration:  2361charge 0 multiplicity 1
 C        -2.984466        -1.585944         1.556595
 C        -1.836685        -0.616496         1.166234
 C        -1.961031         0.307146        -0.019884
 C        -0.630824         1.227296        -0.077889
 C         0.257271         0.100603         0.074624
 O         1.521237        -0.059170        -0.005792
 C        -0.710795        -1.187826         0.230521
 C        -0.063929        -2.549396         0.104676
 O        -1.688513        -0.782670        -0.896416
 H        -2.715584        -2.553333         1.216496
 H        -3.057125        -1.640072         2.614787
 H        -3.994075        -1.389657         1.247847
 H        -1.419913        -0.343514         2.126405
 H        -2.960877         0.852561        -0.249885
 H        -0.604753         1.897916        -0.897739
 H        -0.497081         1.970172         0.796957
 H         0.716018        -2.808954         0.798766
 H        -0.759896        -3.412204        -0.025615
 H         0.363652        -2.487831        -0.887577
