19
Iteration:  4454
 C        -3.007599        -1.550791         1.522290
 C        -1.670142        -0.720582         1.217961
 C        -2.030942         0.321786         0.051104
 C        -0.656557         1.188989        -0.111287
 C         0.316115        -0.052561         0.118510
 O         1.507301        -0.013344         0.093965
 C        -0.741666        -1.193072         0.138905
 C        -0.106290        -2.510445         0.086164
 O        -1.686308        -0.703097        -0.949383
 H        -3.664854        -1.715469         0.602926
 H        -2.959516        -2.599583         1.995922
 H        -3.614209        -0.842122         2.261519
 H        -1.150266        -0.243791         2.103092
 H        -2.996077         0.834982        -0.106884
 H        -0.467576         1.538080        -1.200095
 H        -0.602171         2.212102         0.306170
 H         0.876067        -2.551092         0.637669
 H        -0.669349        -3.312196         0.557556
 H         0.106822        -2.699427        -1.026328
