19
Iteration:  3010charge 0 multiplicity 1
 C        -2.849905        -1.503679         1.559537
 C        -1.739999        -0.508628         1.155547
 C        -1.976678         0.350160        -0.083125
 C        -0.768088         1.176949        -0.048390
 C         0.292345         0.012185         0.034075
 O         1.466692        -0.038399         0.198933
 C        -0.630033        -1.210439         0.124833
 C        -0.118194        -2.608214         0.130538
 O        -1.760996        -0.848739        -0.991462
 H        -3.464205        -1.788484         0.661768
 H        -2.532092        -2.502230         2.019883
 H        -3.426993        -1.029522         2.387283
 H        -1.342840         0.115158         2.016757
 H        -2.938191         0.860682        -0.300109
 H        -0.540266         1.731069        -1.019686
 H        -0.515403         1.934169         0.655422
 H         0.328920        -2.840156         1.114018
 H        -0.927829        -3.386429        -0.107435
 H         0.778501        -2.444471        -0.499653
