19
Iteration:  4646
 C        -2.955499        -1.604020         1.410839
 C        -1.760215        -0.597115         1.182410
 C        -1.920130         0.329890         0.033391
 C        -0.704365         1.270181         0.005608
 C         0.320023        -0.000560         0.030259
 O         1.495627         0.010288        -0.007316
 C        -0.638747        -1.179379         0.136002
 C        -0.200743        -2.633071         0.208266
 O        -1.690514        -0.772943        -0.947772
 H        -3.637761        -1.638775         0.573266
 H        -2.597652        -2.495372         1.993535
 H        -3.463693        -1.056278         2.227601
 H        -1.358912        -0.333889         2.145043
 H        -2.969588         0.788473         0.021663
 H        -0.699731         2.044583        -0.715843
 H        -0.396225         1.884903         0.875769
 H         0.205845        -2.662208         1.216482
 H        -1.019734        -3.450498         0.051122
 H         0.602642        -2.948502        -0.473962
