19
Iteration:   446charge 0 multiplicity 1
 C        -2.948421        -1.534045         1.428346
 C        -1.721767        -0.562636         1.237549
 C        -1.972622         0.273684         0.028775
 C        -0.727651         1.110254        -0.177820
 C         0.276016         0.021058         0.059714
 O         1.474054         0.158505         0.099001
 C        -0.652002        -1.196676         0.245470
 C        -0.160234        -2.620416         0.088871
 O        -1.641478        -0.837253        -0.847598
 H        -2.494427        -2.288605         2.085967
 H        -3.815067        -0.968584         1.882260
 H        -3.204567        -1.933619         0.434154
 H        -1.379224        -0.051726         2.163803
 H        -2.975121         0.737307        -0.057730
 H        -0.688048         1.394559        -1.254841
 H        -0.509093         1.942538         0.450495
 H         0.736019        -2.856287         0.675153
 H        -1.004841        -3.300283         0.354571
 H         0.123761        -2.746252        -0.954460
