19
Iteration:   849
 C        -2.819502        -1.540204         1.362380
 C        -1.668840        -0.654164         1.230887
 C        -1.968094         0.393807         0.065773
 C        -0.753553         1.220073        -0.160091
 C         0.208729         0.045208         0.013572
 O         1.432812        -0.010093         0.006424
 C        -0.683605        -1.174065         0.228122
 C        -0.201456        -2.523819         0.194937
 O        -1.634165        -0.894447        -0.840648
 H        -2.491972        -2.567316         1.536232
 H        -3.531698        -1.328856         2.198074
 H        -3.340098        -1.701770         0.376922
 H        -1.453115        -0.155692         2.190666
 H        -2.888165         0.887122         0.168177
 H        -0.540266         1.852247        -1.005043
 H        -0.615827         1.902024         0.687200
 H        -0.126988        -2.909238         1.219613
 H        -0.759735        -3.220265        -0.372531
 H         0.833229        -2.529365        -0.154761
