19
Iteration:  2878charge 0 multiplicity 1
 C        -2.955708        -1.674248         1.496869
 C        -1.806385        -0.610409         1.173332
 C        -1.965488         0.363991        -0.058548
 C        -0.587787         1.181443        -0.121177
 C         0.279340        -0.007366         0.044653
 O         1.453528        -0.058744         0.081897
 C        -0.722150        -1.160761         0.161633
 C        -0.152130        -2.475436         0.218168
 O        -1.640761        -0.704988        -0.872583
 H        -3.538086        -1.993042         0.597056
 H        -2.421881        -2.591519         1.897503
 H        -3.627073        -1.275955         2.327850
 H        -1.326764        -0.277763         2.148450
 H        -2.871330         0.957320        -0.439368
 H        -0.749608         1.574860        -1.183705
 H        -0.573569         1.950632         0.551725
 H         0.895675        -2.394515         0.634478
 H        -0.802619        -3.298912         0.700549
 H         0.162295        -2.874404        -0.835012
