19
Iteration:   205
 C        -2.937617        -1.620115         1.640879
 C        -1.796744        -0.676718         1.153342
 C        -2.002995         0.336373        -0.058299
 C        -0.749255         1.268839        -0.016607
 C         0.209031         0.084462         0.080275
 O         1.400280         0.012836        -0.036314
 C        -0.775493        -1.199059         0.212135
 C        -0.122580        -2.553175         0.214212
 O        -1.400959        -0.810134        -1.047620
 H        -2.479670        -2.482092         2.182232
 H        -3.523643        -1.028687         2.372204
 H        -3.527447        -1.944253         0.757768
 H        -1.348902        -0.321699         2.103989
 H        -2.960136         0.651681        -0.426089
 H        -0.579252         1.806533        -1.059859
 H        -0.544676         1.900748         0.883437
 H         0.466940        -2.669555         1.116968
 H        -0.881084        -3.297842        -0.065295
 H         0.725535        -2.584052        -0.516990
