19
Iteration:  2131
 C        -3.011014        -1.526261         1.462382
 C        -1.714480        -0.749615         1.310678
 C        -2.033211         0.320693         0.158610
 C        -0.705245         1.179739        -0.039688
 C         0.341481         0.063820        -0.022855
 O         1.548740         0.116969        -0.123376
 C        -0.648512        -1.211333         0.181951
 C        -0.235137        -2.647573         0.022148
 O        -1.592249        -0.703483        -0.800663
 H        -3.768850        -0.944810         1.906768
 H        -3.464262        -1.945529         0.520919
 H        -3.002464        -2.394029         2.116568
 H        -1.231616        -0.540093         2.296795
 H        -3.138606         0.580240        -0.015906
 H        -0.644042         1.564985        -1.059177
 H        -0.343471         1.865496         0.796756
 H         0.732624        -2.588094         0.397753
 H        -0.822007        -3.245345         0.633696
 H        -0.309967        -3.151974        -0.964144
