19
Iteration:   843charge 0 multiplicity 1
 C        -2.833433        -1.543612         1.346779
 C        -1.665358        -0.588516         1.216404
 C        -1.918241         0.350257         0.078567
 C        -0.741887         1.155853        -0.126310
 C         0.206516         0.011179         0.073690
 O         1.380640         0.036044        -0.026143
 C        -0.659442        -1.103034         0.230948
 C        -0.214995        -2.553108         0.189245
 O        -1.616010        -0.912778        -0.841837
 H        -2.406390        -2.529199         1.619700
 H        -3.626509        -1.303112         2.032286
 H        -3.374734        -1.573072         0.431932
 H        -1.322633        -0.171379         2.173179
 H        -2.937663         0.845483         0.212460
 H        -0.525447         1.741083        -1.126609
 H        -0.668056         1.916915         0.681815
 H        -0.118013        -2.966425         1.196191
 H        -0.917306        -3.134766        -0.495482
 H         0.813284        -2.587365        -0.223833
