19
Iteration:  1897
 C        -2.921495        -1.514663         1.508139
 C        -1.707774        -0.669351         1.217969
 C        -1.922429         0.307108         0.088368
 C        -0.726822         1.201850        -0.064807
 C         0.283198         0.113132         0.106542
 O         1.468249         0.137073        -0.039904
 C        -0.699180        -1.241506         0.218480
 C        -0.195646        -2.743467         0.149573
 O        -1.623288        -0.783192        -0.985054
 H        -2.684435        -2.585777         1.592120
 H        -3.389599        -1.174740         2.411650
 H        -3.586817        -1.439545         0.672833
 H        -1.148932        -0.241526         2.114677
 H        -2.965269         0.836130        -0.072906
 H        -0.778974         1.612912        -1.129252
 H        -0.488717         2.061339         0.602908
 H         0.829286        -3.002823         0.372322
 H        -0.934887        -3.311359         0.704217
 H        -0.455860        -2.889259        -0.836418
