19
Iteration:  2777charge 0 multiplicity 1
 C        -2.839477        -1.562963         1.525252
 C        -1.673339        -0.545023         1.231407
 C        -1.930787         0.366511        -0.017241
 C        -0.707634         1.198916        -0.158091
 C         0.256531         0.007609         0.010943
 O         1.495064         0.067343         0.242206
 C        -0.697727        -1.216573         0.057255
 C        -0.290978        -2.608865         0.083135
 O        -1.669494        -0.853600        -0.872401
 H        -2.790607        -2.327094         0.728138
 H        -2.708694        -2.075137         2.486491
 H        -3.863322        -1.058754         1.525394
 H        -1.288244         0.002527         2.116928
 H        -2.930034         0.768948        -0.194550
 H        -0.595310         1.567335        -1.122259
 H        -0.567097         1.967848         0.593935
 H        -0.151488        -3.293689         0.967994
 H        -1.084827        -2.989949        -0.509048
 H         0.602916        -2.694687        -0.569103
