19
Iteration:  4820
 C        -2.720546        -1.604559         1.677931
 C        -1.712955        -0.513717         1.082628
 C        -2.001056         0.396250        -0.094270
 C        -0.663553         1.190846        -0.136569
 C         0.242478        -0.042306         0.022395
 O         1.412920        -0.008595         0.326064
 C        -0.733149        -1.207817         0.078641
 C        -0.260745        -2.598040         0.063509
 O        -1.674651        -0.766198        -0.975827
 H        -3.504991        -1.740230         0.871739
 H        -2.227281        -2.635840         1.800700
 H        -3.258936        -1.144273         2.557687
 H        -1.081379        -0.080599         1.973525
 H        -3.025915         0.773540        -0.370224
 H        -0.364219         1.761430        -1.001622
 H        -0.625120         1.721229         0.818841
 H         0.309417        -2.770231         0.948294
 H        -1.119780        -3.251693        -0.120827
 H         0.503509        -2.722063        -0.686048
