19
Iteration:  4568
 C        -2.810773        -1.509682         1.615977
 C        -1.743378        -0.569789         1.185471
 C        -2.052009         0.344424        -0.015406
 C        -0.671771         1.127461        -0.071590
 C         0.289859         0.003657         0.135794
 O         1.468660        -0.079403         0.186536
 C        -0.781089        -1.148902         0.107653
 C        -0.156157        -2.508819        -0.033801
 O        -1.676109        -0.821436        -0.985599
 H        -2.938535        -2.218708         0.766670
 H        -2.301581        -2.157105         2.376203
 H        -3.710871        -0.929869         1.907745
 H        -1.214636        -0.019998         1.945036
 H        -3.039525         0.833178        -0.275079
 H        -0.454974         1.721799        -0.927528
 H        -0.501998         1.965482         0.646471
 H         0.232317        -2.896457         0.905276
 H        -1.012573        -3.309370        -0.123383
 H         0.589186        -2.479353        -0.798163
