19
Iteration:   389
 C        -2.788221        -1.538169         1.795614
 C        -1.684881        -0.623433         1.162535
 C        -2.050802         0.304490        -0.090703
 C        -0.757275         1.140365        -0.185380
 C         0.232387        -0.066518         0.083615
 O         1.407524         0.093715         0.323026
 C        -0.769406        -1.220900         0.013795
 C        -0.090519        -2.619601         0.051839
 O        -1.626762        -0.689274        -1.105014
 H        -2.534993        -2.019666         2.745333
 H        -3.712785        -1.006941         2.061332
 H        -3.155727        -2.348516         1.158856
 H        -1.046074        -0.013794         1.831094
 H        -3.052088         0.860573        -0.157585
 H        -0.597842         1.402540        -1.175235
 H        -0.465973         2.112261         0.327927
 H         0.469751        -2.611164         0.998504
 H        -0.880315        -3.414119         0.203427
 H         0.612161        -2.982409        -0.735807
