19
Iteration:  2272
 C        -2.797482        -1.495258         1.592656
 C        -1.655521        -0.608794         1.221540
 C        -1.991463         0.299049         0.028260
 C        -0.737516         1.151946        -0.179068
 C         0.302425         0.022292         0.075168
 O         1.514635         0.168203         0.249229
 C        -0.693176        -1.208787         0.182368
 C        -0.293784        -2.717796        -0.102997
 O        -1.703685        -0.820632        -0.906616
 H        -2.570126        -2.466631         1.918293
 H        -3.306247        -0.915941         2.398663
 H        -3.474867        -1.472800         0.778711
 H        -1.048441        -0.175779         2.055269
 H        -3.098345         0.751637        -0.095182
 H        -0.630671         1.460418        -1.217573
 H        -0.605777         2.013107         0.539183
 H         0.233286        -3.375957         0.588835
 H        -1.200397        -3.123006        -0.494874
 H         0.355655        -2.604992        -1.031822
