19
Iteration:   611
 C        -2.803387        -1.565157         1.790949
 C        -1.797230        -0.572920         1.154908
 C        -2.069152         0.314863        -0.141280
 C        -0.775863         1.168460        -0.081951
 C         0.293827         0.049724         0.067307
 O         1.479965        -0.085709         0.178381
 C        -0.668146        -1.166960         0.084940
 C        -0.154957        -2.494998         0.103506
 O        -1.606468        -0.808268        -1.047113
 H        -2.526799        -2.119048         2.689583
 H        -3.785511        -1.107173         1.947017
 H        -3.126624        -2.222209         0.962219
 H        -1.409671         0.039772         1.990416
 H        -2.971436         0.750136        -0.443796
 H        -0.610224         1.622949        -1.142375
 H        -0.825174         1.921332         0.595909
 H         0.244933        -2.876226         1.069904
 H        -0.809935        -3.236685        -0.300863
 H         0.773285        -2.308558        -0.485696
