19
Iteration:  3270charge 0 multiplicity 1
 C        -2.942753        -1.445806         1.588074
 C        -1.778909        -0.548229         1.174896
 C        -1.976283         0.325144        -0.092297
 C        -0.798147         1.200779        -0.029242
 C         0.285212        -0.015066         0.071908
 O         1.483485        -0.061735         0.119711
 C        -0.692805        -1.257048         0.127704
 C        -0.050796        -2.554860        -0.006625
 O        -1.619197        -0.818262        -0.879594
 H        -3.198901        -2.099320         0.758475
 H        -2.731185        -2.073519         2.469208
 H        -3.852866        -0.908150         1.835654
 H        -1.458544        -0.024964         2.134495
 H        -3.076992         0.656931        -0.161753
 H        -0.502383         1.746525        -0.936341
 H        -0.761313         1.877438         0.832670
 H         0.889332        -2.583417         0.587370
 H        -0.720253        -3.385601         0.415753
 H         0.268712        -2.628754        -1.065577
