19
Iteration:  4744charge 0 multiplicity 1
 C        -2.915446        -1.440676         1.441038
 C        -1.613847        -0.647749         1.186180
 C        -2.036804         0.364149         0.022875
 C        -0.723528         1.186772        -0.027085
 C         0.277809        -0.032583         0.125719
 O         1.518792         0.057334         0.127139
 C        -0.694109        -1.249772         0.114600
 C        -0.113724        -2.653383         0.056236
 O        -1.761551        -0.806609        -0.916413
 H        -3.246535        -2.007686         0.488867
 H        -2.872682        -2.109981         2.439497
 H        -3.626945        -0.563334         1.610521
 H        -1.258373        -0.161230         2.201946
 H        -3.077821         0.800024        -0.195801
 H        -0.558914         1.720617        -0.951132
 H        -0.533049         1.952669         0.734786
 H         0.826169        -2.637551         0.602098
 H        -0.941756        -3.374826         0.347885
 H         0.238045        -2.993607        -0.956768
