19
Iteration:  1881charge 0 multiplicity 1
 C        -2.978972        -1.576668         1.459906
 C        -1.703559        -0.741351         1.231572
 C        -1.947950         0.306425         0.043790
 C        -0.731121         1.197535        -0.158376
 C         0.356926         0.006537         0.059439
 O         1.510106         0.199303        -0.057705
 C        -0.609185        -1.176672         0.220142
 C        -0.366073        -2.630240         0.110379
 O        -1.578936        -0.766304        -0.793704
 H        -2.917654        -2.675235         1.528306
 H        -3.328684        -1.340321         2.501426
 H        -3.833691        -1.338344         0.765609
 H        -1.283954        -0.458690         2.223486
 H        -2.924066         0.587637        -0.052320
 H        -0.421070         1.556264        -1.109883
 H        -0.709826         2.036132         0.526419
 H         0.733655        -2.606624         0.384569
 H        -0.867113        -3.205261         0.921011
 H        -0.350339        -3.141276        -0.943925
