19
Iteration:  3286
 C        -2.993953        -1.466780         1.550683
 C        -1.754202        -0.649596         1.281361
 C        -2.007934         0.277475         0.060860
 C        -0.687468         1.163201        -0.185301
 C         0.262921         0.032586         0.045951
 O         1.507642        -0.002950         0.169613
 C        -0.683504        -1.150833         0.146709
 C        -0.084574        -2.578071         0.003578
 O        -1.640620        -0.801737        -0.940915
 H        -3.370902        -2.101297         0.720040
 H        -2.841412        -2.230842         2.342067
 H        -3.716810        -0.783122         2.046322
 H        -1.251141        -0.100019         2.057251
 H        -2.853663         0.790468        -0.259388
 H        -0.883480         1.538547        -1.233110
 H        -0.519153         1.899175         0.666137
 H         0.665299        -2.725701         0.776835
 H        -0.852033        -3.294184         0.085382
 H         0.366782        -2.694552        -0.977567
