19
Iteration:  4628
 C        -3.006549        -1.517728         1.464697
 C        -1.658045        -0.731317         1.186259
 C        -1.992666         0.363824         0.087618
 C        -0.679904         1.085612        -0.043154
 C         0.347183         0.013289         0.049287
 O         1.525735         0.097643         0.020602
 C        -0.763211        -1.205827         0.130405
 C        -0.190602        -2.610180         0.193590
 O        -1.673661        -0.701608        -0.928187
 H        -3.547047        -1.551785         0.520331
 H        -2.779952        -2.513785         1.778278
 H        -3.645276        -1.157682         2.249025
 H        -1.120030        -0.268058         2.046331
 H        -2.883933         0.840115        -0.204755
 H        -0.585692         1.418664        -1.201173
 H        -0.558917         2.003696         0.715102
 H         0.169191        -2.790419         1.253750
 H        -0.850203        -3.313295        -0.243163
 H         0.723982        -2.810705        -0.491001
