19
Iteration:  1000charge 0 multiplicity 1
 C        -2.775276        -1.601723         1.487639
 C        -1.631519        -0.604518         1.202770
 C        -2.025018         0.346869         0.026312
 C        -0.694447         1.230311        -0.184041
 C         0.249145         0.015050         0.045714
 O         1.447284        -0.105429         0.274147
 C        -0.712883        -1.105788         0.037681
 C        -0.138679        -2.447885         0.108660
 O        -1.794609        -0.850829        -0.911753
 H        -2.474624        -2.549401         1.951896
 H        -3.600752        -1.151575         2.090632
 H        -3.181140        -1.695359         0.450363
 H        -1.101735        -0.024861         1.991254
 H        -3.009222         0.686138        -0.270782
 H        -0.492206         1.654710        -1.118503
 H        -0.601773         1.966738         0.727446
 H         0.955826        -2.456152         0.275372
 H        -0.510503        -3.109419         0.882004
 H        -0.459942        -3.051259        -0.743676
