19
Iteration:  3534
 C        -2.960880        -1.571661         1.605475
 C        -1.810757        -0.564869         1.159096
 C        -2.004266         0.310893        -0.019281
 C        -0.677933         1.168343        -0.077087
 C         0.326098        -0.000341         0.119455
 O         1.492984        -0.034559         0.074056
 C        -0.712582        -1.161069         0.134080
 C        -0.124721        -2.570911         0.079065
 O        -1.634704        -0.752523        -0.995429
 H        -3.639833        -2.045033         0.841548
 H        -2.455227        -2.200505         2.387089
 H        -3.702618        -1.033475         2.209930
 H        -1.145895        -0.237822         1.996857
 H        -3.027014         0.693003        -0.110431
 H        -0.456991         1.746629        -0.971909
 H        -0.571981         1.776684         0.764851
 H         0.928790        -2.412757         0.483650
 H        -0.720961        -3.192422         0.856852
 H        -0.131455        -2.865569        -1.007742
