19
Iteration:  4600
 C        -2.999288        -1.518764         1.522801
 C        -1.738837        -0.662214         1.220013
 C        -1.990451         0.396603         0.088253
 C        -0.670114         1.218892        -0.160008
 C         0.252414         0.050918         0.017274
 O         1.500802        -0.005267         0.125274
 C        -0.685923        -1.170006         0.201901
 C        -0.114327        -2.637124         0.010298
 O        -1.633462        -0.827864        -0.866798
 H        -3.491973        -1.653950         0.521682
 H        -2.589673        -2.420101         2.087369
 H        -3.719345        -1.061788         2.271428
 H        -1.322048        -0.151804         2.105497
 H        -2.981280         0.816362        -0.230172
 H        -0.597607         1.665527        -1.092798
 H        -0.447338         2.028136         0.469754
 H         0.174680        -3.146171         0.922363
 H        -0.964004        -3.131112        -0.558760
 H         0.650947        -2.794756        -0.705645
