19
Iteration:  3258charge 0 multiplicity 1
 C        -2.918158        -1.484401         1.586806
 C        -1.755905        -0.581522         1.163445
 C        -2.050727         0.332078        -0.087906
 C        -0.685197         1.230032         0.037174
 C         0.259360        -0.026960         0.138327
 O         1.450022        -0.055484         0.077975
 C        -0.746246        -1.145366         0.217676
 C        -0.021889        -2.559938         0.040058
 O        -1.649536        -0.879464        -0.998612
 H        -3.139793        -2.211358         0.799715
 H        -2.653049        -2.026158         2.508701
 H        -3.811430        -0.843213         1.722443
 H        -1.188300         0.106229         1.892196
 H        -2.998421         0.870949        -0.550151
 H        -0.485590         1.872428        -0.800189
 H        -0.612058         1.823599         0.922130
 H         1.042662        -2.569198         0.503239
 H        -0.681591        -3.449952         0.380050
 H        -0.029706        -2.827015        -1.068512
