19
Iteration:   572
 C        -2.915949        -1.548314         1.391278
 C        -1.634723        -0.609821         1.301100
 C        -1.969561         0.298474         0.103245
 C        -0.696207         1.074292        -0.147426
 C         0.263055         0.007805        -0.043625
 O         1.444505         0.218165         0.057725
 C        -0.688733        -1.152207         0.171270
 C        -0.217201        -2.650027         0.210713
 O        -1.668446        -0.847317        -0.883286
 H        -3.149656        -2.021216         2.377886
 H        -3.688518        -0.846658         1.069580
 H        -2.737954        -2.298109         0.598001
 H        -1.055513        -0.160653         2.117509
 H        -2.839769         0.996191        -0.132292
 H        -0.697896         1.485069        -1.118748
 H        -0.359850         1.905779         0.659375
 H        -0.017831        -2.959714         1.220120
 H        -0.994988        -3.338494        -0.250024
 H         0.664130        -2.774095        -0.441789
