19
Iteration:  3039charge 0 multiplicity 1
 C        -2.814303        -1.633085         1.486243
 C        -1.653233        -0.630030         1.226035
 C        -1.955975         0.391903         0.014657
 C        -0.709031         1.198335        -0.307835
 C         0.271686         0.015591         0.026810
 O         1.501658         0.092471         0.255568
 C        -0.686469        -1.185822         0.123174
 C        -0.323384        -2.627698         0.137960
 O        -1.700561        -0.805452        -0.889507
 H        -3.468009        -1.803746         0.644569
 H        -2.638228        -2.579748         1.928167
 H        -3.547118        -1.147095         2.169943
 H        -1.232300        -0.181216         2.113807
 H        -3.025586         0.787226        -0.095888
 H        -0.578275         1.490602        -1.422785
 H        -0.213458         2.003367         0.435382
 H        -0.107723        -2.746173         1.166915
 H        -1.011902        -3.275706        -0.287651
 H         0.683043        -2.527542        -0.263841
