19
Iteration:  1891charge 0 multiplicity 1
 C        -2.956625        -1.523264         1.486473
 C        -1.637067        -0.741821         1.214496
 C        -1.944724         0.313473         0.077186
 C        -0.698672         1.224958        -0.117056
 C         0.265703         0.097231         0.137582
 O         1.493124         0.165959        -0.059329
 C        -0.661172        -1.267057         0.242394
 C        -0.266416        -2.674530         0.158333
 O        -1.616519        -0.776773        -0.946133
 H        -2.647509        -2.584754         1.527133
 H        -3.362427        -1.201997         2.474528
 H        -3.769260        -1.425240         0.708211
 H        -1.364180        -0.249026         2.137947
 H        -2.898086         0.794727        -0.014785
 H        -0.746151         1.561195        -1.177210
 H        -0.592413         2.032871         0.601183
 H         0.783539        -2.957951         0.366777
 H        -0.902704        -3.389327         0.742802
 H        -0.502170        -2.988216        -0.947692
