19
Iteration:  1503
 C        -2.919648        -1.497808         1.546917
 C        -1.648057        -0.652825         1.236534
 C        -1.951411         0.283781        -0.001614
 C        -0.768941         1.184715        -0.022420
 C         0.370204         0.045035         0.006846
 O         1.529584         0.165129         0.035168
 C        -0.723808        -1.196675         0.109138
 C        -0.241541        -2.694047         0.067730
 O        -1.700086        -0.824092        -0.879997
 H        -2.661289        -2.478856         1.851115
 H        -3.415165        -0.963540         2.348777
 H        -3.540810        -1.612521         0.671542
 H        -1.294613        -0.058004         2.078074
 H        -3.053979         0.640403        -0.058775
 H        -0.727410         1.510474        -1.003220
 H        -0.501456         1.888134         0.764162
 H         0.155382        -2.961936         1.054787
 H        -1.044315        -3.323505        -0.212205
 H         0.642127        -2.798704        -0.571356
