19
Iteration:  3797charge 0 multiplicity 1
 C        -2.876285        -1.684035         1.595083
 C        -1.795214        -0.592274         1.173347
 C        -2.013569         0.380324         0.003578
 C        -0.687038         1.172811        -0.010140
 C         0.303549        -0.008381         0.091703
 O         1.469959        -0.004077         0.004962
 C        -0.695722        -1.114858         0.153805
 C        -0.226312        -2.618123         0.145955
 O        -1.585217        -0.687376        -1.018642
 H        -3.201371        -2.254109         0.655557
 H        -2.623279        -2.336762         2.498318
 H        -3.629421        -1.003877         2.069772
 H        -1.167641        -0.190791         2.070009
 H        -2.894031         0.885938        -0.344855
 H        -0.726084         1.647729        -1.001693
 H        -0.588872         1.906103         0.762491
 H         0.609711        -2.798844         0.878074
 H        -0.900347        -3.412899         0.427435
 H         0.082570        -2.838955        -0.916740
