19
Iteration:  3852charge 0 multiplicity 1
 C        -2.937189        -1.489817         1.564618
 C        -1.734169        -0.625606         1.238722
 C        -1.954496         0.222874         0.085229
 C        -0.665367         1.173403        -0.214384
 C         0.299367         0.023925         0.031549
 O         1.466388         0.065237         0.193548
 C        -0.670187        -1.153929         0.136372
 C        -0.152056        -2.635653        -0.046473
 O        -1.712033        -0.763975        -0.894490
 H        -3.711136        -1.419948         0.733646
 H        -2.649419        -2.574028         1.720175
 H        -3.389577        -0.921174         2.438189
 H        -1.101023        -0.424690         2.237594
 H        -2.940601         0.641310        -0.000614
 H        -0.683796         1.605971        -1.242153
 H        -0.610943         1.957642         0.510724
 H         0.353262        -2.801837         0.968686
 H        -0.984163        -3.311969        -0.153105
 H         0.645184        -2.790594        -0.816623
