19
Iteration:  2445charge 0 multiplicity 1
 C        -2.863307        -1.707701         1.547173
 C        -1.853418        -0.552875         1.147959
 C        -1.934942         0.345659        -0.065223
 C        -0.709252         1.179150        -0.027125
 C         0.308715        -0.050724         0.051335
 O         1.470720        -0.031809        -0.007778
 C        -0.673802        -1.122300         0.244212
 C        -0.184335        -2.478027         0.195584
 O        -1.639838        -0.739647        -0.977461
 H        -3.405535        -2.067557         0.648342
 H        -2.357132        -2.632696         2.057664
 H        -3.625318        -1.207991         2.199539
 H        -1.606344        -0.116442         2.190740
 H        -2.857267         1.003213        -0.266094
 H        -0.656761         1.679439        -0.988972
 H        -0.522612         1.762410         0.882750
 H         0.574376        -2.513438         1.014469
 H        -0.933081        -3.257519         0.477208
 H         0.249556        -2.702051        -0.860715
