19
Iteration:  2087charge 0 multiplicity 1
 C        -2.838032        -1.615843         1.622382
 C        -1.803988        -0.612558         1.243439
 C        -1.996277         0.401495         0.008372
 C        -0.644279         1.211241         0.085617
 C         0.235289        -0.103504         0.007259
 O         1.414567        -0.101924        -0.062788
 C        -0.782154        -1.136594         0.104140
 C        -0.033427        -2.485762        -0.014739
 O        -1.691143        -0.727515        -0.862185
 H        -3.790920        -1.218936         1.340058
 H        -2.770078        -2.523282         0.969760
 H        -2.805987        -1.985670         2.644960
 H        -1.325626        -0.055617         2.064156
 H        -2.830143         1.088300        -0.328259
 H        -0.368935         1.806674        -0.813301
 H        -0.627212         1.736672         1.078436
 H         0.672502        -2.584814         0.761723
 H        -0.690874        -3.302289         0.082565
 H         0.537199        -2.633001        -0.955602
