19
Iteration:  4139charge 0 multiplicity 1
 C        -2.896957        -1.468607         1.591938
 C        -1.706562        -0.696822         1.252617
 C        -2.008401         0.346348         0.041245
 C        -0.709487         1.183541        -0.153010
 C         0.269604         0.014517         0.022359
 O         1.450210        -0.057196         0.139116
 C        -0.726571        -1.167328         0.087605
 C        -0.107025        -2.573229         0.051291
 O        -1.673790        -0.764654        -0.929206
 H        -3.478225        -1.654755         0.599643
 H        -2.564059        -2.478655         2.084732
 H        -3.663059        -0.996186         2.326635
 H        -1.053360        -0.361970         2.172329
 H        -2.998505         0.846164        -0.129597
 H        -0.603832         1.828197        -1.062305
 H        -0.522831         1.981898         0.671956
 H         0.511450        -2.706693         0.956860
 H        -0.832418        -3.382257        -0.173596
 H         0.632018        -2.629201        -0.807726
