19
Iteration:  3082charge 0 multiplicity 1
 C        -2.824193        -1.567395         1.603672
 C        -1.695939        -0.558624         1.181560
 C        -1.987439         0.351492        -0.090797
 C        -0.694143         1.138928        -0.081556
 C         0.297584         0.021511         0.034482
 O         1.507656         0.071958         0.224523
 C        -0.758082        -1.177020         0.126803
 C        -0.265393        -2.594368         0.062913
 O        -1.661222        -0.872254        -0.943879
 H        -3.067361        -2.122211         0.717164
 H        -2.603519        -2.199372         2.410692
 H        -3.674466        -0.935595         1.919187
 H        -1.133287        -0.052896         1.986217
 H        -2.936611         0.935115        -0.387541
 H        -0.529831         1.532696        -1.065190
 H        -0.845009         2.146256         0.386867
 H         0.049717        -3.056865         1.008790
 H        -1.076104        -3.228238        -0.194732
 H         0.635224        -2.629743        -0.586469
