19
Iteration:  2611charge 0 multiplicity 1
 C        -2.807513        -1.641159         1.459424
 C        -1.773441        -0.582889         1.145505
 C        -1.989687         0.296171        -0.000609
 C        -0.673213         1.255824        -0.054187
 C         0.242405        -0.009806         0.037166
 O         1.421341        -0.150261         0.109133
 C        -0.742867        -1.117898         0.141009
 C        -0.119598        -2.427989         0.191250
 O        -1.676891        -0.744454        -0.961426
 H        -2.853547        -2.243344         0.529840
 H        -2.355690        -2.134713         2.319493
 H        -3.782539        -1.154762         1.611374
 H        -1.426137        -0.141209         2.087968
 H        -3.026573         0.710414        -0.014864
 H        -0.447608         1.691258        -0.940000
 H        -0.350450         1.785347         0.846560
 H         0.723896        -2.468670         0.842001
 H        -0.776961        -3.113570         0.779912
 H        -0.025773        -2.922388        -0.739998
