19
Iteration:   486charge 0 multiplicity 1
 C        -2.983355        -1.560685         1.612873
 C        -1.823159        -0.646927         1.068474
 C        -1.938054         0.296100        -0.088999
 C        -0.729034         1.314744         0.046345
 C         0.239585         0.081735         0.070235
 O         1.432121        -0.109215        -0.049168
 C        -0.682585        -1.211600         0.135459
 C         0.021117        -2.542641         0.308783
 O        -1.605985        -0.757309        -1.053472
 H        -2.690129        -2.510991         1.980965
 H        -3.639877        -1.312832         2.406289
 H        -3.710560        -2.018312         0.986531
 H        -1.359506        -0.152881         1.930108
 H        -3.030565         0.686526        -0.411093
 H        -0.529684         2.062707        -0.641470
 H        -0.883218         1.968457         1.047402
 H         0.847118        -2.348226         0.993026
 H        -0.739053        -3.239001         0.768574
 H         0.493701        -3.079699        -0.547937
