19
Iteration:  3996charge 0 multiplicity 1
 C        -2.952711        -1.462487         1.453457
 C        -1.708555        -0.570469         1.229273
 C        -2.010339         0.316687         0.042095
 C        -0.690119         1.162561        -0.059776
 C         0.201053        -0.003493         0.115679
 O         1.448785         0.009082         0.031449
 C        -0.678229        -1.251357         0.152476
 C        -0.104174        -2.597392         0.033398
 O        -1.622117        -0.834039        -0.851246
 H        -3.359766        -1.487006         0.466566
 H        -2.548131        -2.440864         1.694977
 H        -3.596454        -0.903063         2.144259
 H        -1.265722        -0.104315         2.045420
 H        -2.886057         0.901300         0.219200
 H        -0.549047         1.819162        -0.900304
 H        -0.707912         1.849961         0.737741
 H         0.826214        -2.489418         0.527532
 H        -0.844307        -3.375250         0.273109
 H         0.248013        -2.745920        -0.962617
