19
Iteration:  3645
 C        -2.729128        -1.598623         1.651225
 C        -1.761905        -0.541153         1.139747
 C        -1.982369         0.316741        -0.044487
 C        -0.763332         1.208528        -0.114360
 C         0.302680         0.019261         0.131128
 O         1.482649        -0.082092         0.181458
 C        -0.748225        -1.134670         0.097269
 C        -0.256565        -2.516476         0.114115
 O        -1.692718        -0.764279        -1.066948
 H        -3.410768        -1.838854         0.760181
 H        -2.142305        -2.537533         1.848666
 H        -3.337067        -1.258299         2.518220
 H        -1.145429        -0.110645         1.937250
 H        -2.939283         0.764776        -0.175868
 H        -0.635695         1.756267        -1.089390
 H        -0.393898         1.693784         0.740411
 H         0.171228        -2.816598         1.161466
 H        -0.996011        -3.318701        -0.054914
 H         0.678797        -2.870995        -0.453120
