19
Iteration:   795
 C        -3.063440        -1.593149         1.675848
 C        -1.793507        -0.778302         1.193742
 C        -1.940630         0.289013        -0.033534
 C        -0.682378         1.230590         0.038674
 C         0.274606         0.073903         0.007717
 O         1.499722         0.091103        -0.062040
 C        -0.698992        -1.181424         0.125151
 C        -0.162316        -2.535162         0.188241
 O        -1.515789        -0.792384        -1.007858
 H        -2.776141        -2.019827         2.600381
 H        -4.000895        -1.041395         1.756730
 H        -3.373227        -2.403601         0.994250
 H        -1.509782        -0.236217         2.063412
 H        -2.810893         0.761610        -0.363229
 H        -0.642668         1.825860        -0.909007
 H        -0.299426         1.946645         0.708568
 H         0.200062        -2.795557         1.203114
 H        -1.052300        -3.096148         0.000561
 H         0.558411        -2.824398        -0.570546
