19
Iteration:   664charge 0 multiplicity 1
 C        -2.830920        -1.465845         1.698989
 C        -1.724646        -0.571244         1.150023
 C        -2.042605         0.234740        -0.120582
 C        -0.747247         1.117969        -0.157418
 C         0.297840         0.043278         0.069138
 O         1.490159         0.110367         0.340938
 C        -0.632487        -1.225236         0.010415
 C        -0.179230        -2.586219         0.027507
 O        -1.691050        -0.860760        -0.994048
 H        -2.479923        -2.460566         1.802494
 H        -3.124040        -1.114858         2.678709
 H        -3.687825        -1.498883         1.034914
 H        -1.248514        -0.110400         2.001514
 H        -3.010366         0.671720        -0.337693
 H        -0.696387         1.737350        -1.155078
 H        -0.754180         1.815174         0.702021
 H         0.564030        -2.593474         0.886066
 H        -1.040553        -3.149377         0.362538
 H         0.233724        -2.900304        -0.937321
