19
Iteration:  4597charge 0 multiplicity 1
 C        -3.012105        -1.541070         1.528582
 C        -1.713902        -0.615284         1.213898
 C        -1.998784         0.401775         0.046166
 C        -0.699543         1.200499        -0.133485
 C         0.249561         0.062057         0.015138
 O         1.508474        -0.031870         0.139070
 C        -0.675545        -1.157402         0.204083
 C        -0.121244        -2.638860        -0.006634
 O        -1.639667        -0.836321        -0.852059
 H        -3.499222        -1.762356         0.537964
 H        -2.556939        -2.359000         2.075987
 H        -3.709622        -1.024575         2.244543
 H        -1.176209        -0.141039         2.108517
 H        -2.914426         0.813893        -0.267123
 H        -0.675881         1.782057        -1.081006
 H        -0.416732         2.058528         0.436116
 H         0.150688        -3.242274         0.886937
 H        -0.910237        -3.116060        -0.449341
 H         0.695982        -2.700457        -0.764177
