19
Iteration:  3687
 C        -2.918774        -1.519326         1.571289
 C        -1.727664        -0.663963         1.229312
 C        -2.014926         0.375417         0.010226
 C        -0.656654         1.177459        -0.068807
 C         0.279216        -0.001832         0.098357
 O         1.469742         0.052622         0.048917
 C        -0.708826        -1.214733         0.176326
 C        -0.185858        -2.612079         0.100012
 O        -1.604519        -0.790544        -1.008619
 H        -3.604721        -1.787048         0.695025
 H        -2.685976        -2.575202         1.950465
 H        -3.503605        -1.054664         2.405136
 H        -1.311022        -0.149661         2.046611
 H        -2.935737         0.897485        -0.244065
 H        -0.720703         1.729482        -1.027100
 H        -0.622936         2.028366         0.600096
 H         0.554671        -2.734642         1.012694
 H        -1.044141        -3.329258         0.088678
 H         0.464732        -2.748956        -0.849644
