19
Iteration:  4734
 C        -2.896637        -1.422103         1.422849
 C        -1.713483        -0.653058         1.179224
 C        -1.973909         0.304752         0.045131
 C        -0.748009         1.140010        -0.000600
 C         0.311036        -0.010000         0.062752
 O         1.516817         0.026832         0.100731
 C        -0.662912        -1.191415         0.129687
 C        -0.146552        -2.588048         0.062909
 O        -1.734719        -0.783219        -0.898197
 H        -3.181553        -2.154566         0.589141
 H        -2.989592        -1.991514         2.458801
 H        -3.814128        -0.734027         1.495128
 H        -1.067528        -0.417878         2.092887
 H        -2.943250         0.789102        -0.256274
 H        -0.737845         1.686719        -0.911551
 H        -0.584510         1.824498         0.831804
 H         0.655824        -2.686631         0.815081
 H        -0.730839        -3.363763         0.582910
 H         0.075890        -2.850027        -1.036131
