19
Iteration:    59charge 0 multiplicity 1
 C        -2.882056        -1.567626         1.669902
 C        -1.723212        -0.753779         1.059313
 C        -2.006309         0.332628         0.016317
 C        -0.790768         1.241786        -0.256797
 C         0.272453         0.014551         0.130351
 O         1.481378         0.107511         0.261407
 C        -0.776597        -1.220341         0.084122
 C        -0.139628        -2.614556         0.066078
 O        -1.561389        -0.752186        -0.955359
 H        -2.507249        -2.326157         2.368053
 H        -3.415437        -0.769290         2.211497
 H        -3.591108        -1.987547         0.941619
 H        -1.179638        -0.328280         1.972257
 H        -3.045171         0.706499        -0.116194
 H        -0.757076         1.419954        -1.302011
 H        -0.569712         2.262156         0.376633
 H         0.873332        -2.543080         0.397102
 H        -0.734299        -3.323593         0.638699
 H        -0.010283        -3.024661        -0.888108
