19
Iteration:  2978
 C        -3.027107        -1.512709         1.726565
 C        -1.782562        -0.685875         1.137762
 C        -1.930976         0.301717        -0.094939
 C        -0.744191         1.182832        -0.031498
 C         0.245580         0.012985         0.115024
 O         1.438007        -0.078897         0.072926
 C        -0.679859        -1.182096         0.195805
 C        -0.112665        -2.482210         0.105876
 O        -1.527199        -0.743445        -1.064211
 H        -3.527535        -2.092772         0.915427
 H        -2.561851        -2.139707         2.538403
 H        -3.741125        -0.770679         2.133506
 H        -1.397897        -0.133472         2.062146
 H        -2.819166         0.851445        -0.443155
 H        -0.608446         1.426517        -1.105181
 H        -0.620852         2.000208         0.556942
 H         0.702295        -2.581686         0.869847
 H        -0.707069        -3.459497         0.122145
 H         0.319921        -2.600989        -0.922266
