19
Iteration:  4860charge 0 multiplicity 1
 C        -2.889163        -1.519643         1.552443
 C        -1.630014        -0.677614         1.148786
 C        -1.969275         0.344333         0.007577
 C        -0.718674         1.188872        -0.171699
 C         0.254314         0.022067         0.164220
 O         1.479633         0.008601         0.209068
 C        -0.698927        -1.167971         0.064807
 C        -0.228976        -2.632915         0.028615
 O        -1.684661        -0.741706        -0.908839
 H        -3.176751        -2.234708         0.789847
 H        -2.601778        -2.072046         2.394767
 H        -3.713444        -0.972922         1.903522
 H        -1.090187        -0.294867         1.991585
 H        -2.957920         0.846738        -0.017468
 H        -0.688868         1.699776        -1.193582
 H        -0.395957         2.146129         0.347838
 H         0.304656        -2.837445         1.038177
 H        -1.134803        -3.379176        -0.169535
 H         0.531939        -2.894933        -0.696664
