19
Iteration:  3137charge 0 multiplicity 1
 C        -3.014433        -1.500385         1.612984
 C        -1.773754        -0.635176         1.171942
 C        -1.966228         0.248249         0.012679
 C        -0.653450         1.203146        -0.100004
 C         0.213952         0.032344         0.159615
 O         1.437786        -0.073450         0.057810
 C        -0.733459        -1.216945         0.153136
 C        -0.066770        -2.516549         0.093987
 O        -1.533395        -0.754039        -1.036413
 H        -3.663037        -1.940399         0.868502
 H        -2.721030        -2.222089         2.321172
 H        -3.781363        -0.869234         2.091716
 H        -1.156258        -0.153574         1.949567
 H        -3.078038         0.618331        -0.003654
 H        -0.651863         1.655113        -1.047903
 H        -0.657512         2.032625         0.589171
 H         0.837462        -2.194324         0.678683
 H        -0.661106        -3.240624         0.625745
 H         0.224384        -2.866911        -0.947610
