19
Iteration:   250charge 0 multiplicity 1
 C        -2.883081        -1.599882         1.541917
 C        -1.826742        -0.578359         1.159183
 C        -1.979849         0.280050        -0.091932
 C        -0.726536         1.175782         0.073454
 C         0.233518         0.017628         0.017561
 O         1.444394        -0.007578        -0.015884
 C        -0.760776        -1.182496         0.181714
 C        -0.101888        -2.486829         0.213466
 O        -1.543792        -0.817256        -0.948861
 H        -2.577936        -2.091405         2.482671
 H        -3.881519        -1.130659         1.686373
 H        -2.958111        -2.347558         0.732187
 H        -1.492396        -0.050066         2.057309
 H        -2.838232         0.800018        -0.423785
 H        -0.571245         1.953265        -0.808851
 H        -0.692348         1.889149         0.879482
 H         0.747927        -2.425996         0.870335
 H        -0.810644        -3.340468         0.272359
 H         0.436516        -2.613123        -0.735711
