19
Iteration:   646
 C        -2.817208        -1.559222         1.858419
 C        -1.791682        -0.630390         1.098855
 C        -1.983144         0.375160        -0.182810
 C        -0.768766         1.281919        -0.175658
 C         0.223735         0.014093         0.125389
 O         1.415677         0.016912         0.274820
 C        -0.762481        -1.172384         0.105151
 C        -0.081011        -2.711822         0.072051
 O        -1.589948        -0.788200        -1.060114
 H        -2.346847        -2.548485         2.153525
 H        -3.167221        -0.986868         2.724631
 H        -3.606198        -1.821799         1.115059
 H        -1.269670         0.014479         1.854953
 H        -2.922206         0.769132        -0.485881
 H        -0.457109         1.551200        -1.183819
 H        -0.752865         2.103949         0.466380
 H         0.609814        -2.761613         0.884600
 H        -0.766834        -3.545400        -0.133719
 H         0.457519        -2.641289        -0.920539
