19
Iteration:  3572charge 0 multiplicity 1
 C        -2.934161        -1.417483         1.545483
 C        -1.673556        -0.634979         1.213312
 C        -1.998666         0.307573         0.061641
 C        -0.660218         1.221541        -0.203734
 C         0.281075         0.000733         0.112858
 O         1.451004         0.047397         0.177875
 C        -0.684434        -1.216295         0.137600
 C        -0.146064        -2.610437        -0.057813
 O        -1.684226        -0.860545        -0.881212
 H        -3.043845        -2.241096         0.872809
 H        -2.707978        -1.899007         2.475145
 H        -3.813635        -0.741422         1.593006
 H        -1.311221        -0.215162         2.248392
 H        -3.041163         0.693664         0.050133
 H        -0.464228         1.733904        -1.225766
 H        -0.778307         1.920554         0.747735
 H         0.693517        -2.959662         0.480556
 H        -0.927356        -3.304148         0.092229
 H         0.147749        -2.824975        -1.063100
