19
Iteration:   157charge 0 multiplicity 1
 C        -2.958156        -1.625115         1.421718
 C        -1.666384        -0.721469         1.214794
 C        -1.928912         0.370111         0.088286
 C        -0.674805         1.296390        -0.298636
 C         0.308120         0.082246        -0.018155
 O         1.531264         0.208500         0.157233
 C        -0.709639        -1.203618         0.174702
 C        -0.199335        -2.632308         0.181169
 O        -1.736923        -0.933846        -0.839159
 H        -2.688826        -2.523871         1.988905
 H        -3.718959        -1.043651         1.950930
 H        -3.281145        -1.895797         0.419737
 H        -1.324168        -0.344955         2.212001
 H        -2.987318         0.743381         0.095265
 H        -0.765156         1.682313        -1.222665
 H        -0.619177         2.060280         0.550713
 H         0.274759        -2.900837         1.112254
 H        -1.031523        -3.233700        -0.135071
 H         0.613503        -2.768313        -0.498994
