19
Iteration:  2905charge 0 multiplicity 1
 C        -2.879447        -1.645214         1.364874
 C        -1.746072        -0.591124         1.221018
 C        -1.931440         0.369080         0.070172
 C        -0.722045         1.224009        -0.136647
 C         0.303887        -0.000437         0.034689
 O         1.524771         0.028337         0.062276
 C        -0.706411        -1.223143         0.176100
 C        -0.231590        -2.628766         0.258986
 O        -1.648515        -0.719910        -0.909308
 H        -3.182606        -2.032158         0.400801
 H        -2.772043        -2.385113         2.153458
 H        -3.656796        -0.959540         1.613001
 H        -1.407887        -0.189227         2.171101
 H        -2.856337         0.850902        -0.072660
 H        -0.879696         1.537432        -1.149020
 H        -0.825814         2.220692         0.520610
 H         0.827789        -2.628883         0.567079
 H        -0.844341        -3.292214         0.890645
 H        -0.229528        -3.146352        -0.685992
