19
Iteration:  4564charge 0 multiplicity 1
 C        -2.810642        -1.534758         1.634148
 C        -1.715664        -0.542352         1.144314
 C        -2.065926         0.368485        -0.028378
 C        -0.654303         1.138433        -0.041836
 C         0.244766         0.013495         0.139858
 O         1.470154        -0.073669         0.192075
 C        -0.779444        -1.156772         0.088364
 C        -0.170252        -2.532340        -0.007535
 O        -1.672052        -0.808250        -1.007111
 H        -3.013262        -2.345906         0.880868
 H        -2.366186        -2.136350         2.437088
 H        -3.758634        -1.010142         1.935643
 H        -1.075122        -0.120451         1.987312
 H        -2.968908         0.888842        -0.238712
 H        -0.542410         1.509007        -1.090240
 H        -0.406566         1.823201         0.716858
 H         0.345029        -2.845473         0.930014
 H        -0.915294        -3.216419        -0.109840
 H         0.571597        -2.525788        -0.829847
