19
Iteration:  4404
 C        -2.843604        -1.562555         1.544693
 C        -1.795556        -0.607760         1.209271
 C        -1.946076         0.320308        -0.039131
 C        -0.684607         1.178985         0.041247
 C         0.300395         0.038499         0.045695
 O         1.509336        -0.055327        -0.003719
 C        -0.721879        -1.145456         0.181641
 C        -0.246056        -2.516297         0.105983
 O        -1.680219        -0.807464        -0.959477
 H        -2.972149        -2.198114         0.706879
 H        -2.513355        -2.245636         2.273217
 H        -3.751276        -1.199772         1.786745
 H        -1.390984        -0.142086         2.105055
 H        -2.711936         0.977905        -0.397988
 H        -0.522500         1.875297        -0.694763
 H        -0.658550         1.835286         0.902774
 H         0.182876        -2.834442         1.039478
 H        -0.974401        -3.282106        -0.040866
 H         0.522421        -2.491892        -0.621674
