19
Iteration:  1172
 C        -2.911379        -1.634859         1.594393
 C        -1.774947        -0.566167         1.161425
 C        -1.928202         0.317561        -0.040430
 C        -0.649616         1.254417         0.042090
 C         0.267478         0.023941         0.020220
 O         1.508083        -0.009668        -0.017073
 C        -0.715352        -1.187563         0.130330
 C        -0.137962        -2.495131         0.143628
 O        -1.714899        -0.824843        -0.952161
 H        -2.427564        -2.554827         1.851283
 H        -3.558651        -1.266697         2.380191
 H        -3.651458        -1.881691         0.818813
 H        -1.322754        -0.017068         2.030580
 H        -3.021845         0.678933        -0.275906
 H        -0.466373         1.869710        -0.784048
 H        -0.765446         1.613841         0.996036
 H         0.052807        -2.865520         1.200211
 H        -0.917108        -3.132950        -0.275559
 H         0.817417        -2.675375        -0.337141
