19
Iteration:  2980charge 0 multiplicity 1
 C        -3.020663        -1.507908         1.722114
 C        -1.787070        -0.677415         1.136983
 C        -1.920910         0.308726        -0.105097
 C        -0.760047         1.168340        -0.035101
 C         0.226901         0.031827         0.098836
 O         1.447715        -0.088625         0.082282
 C        -0.689631        -1.203305         0.191657
 C        -0.109777        -2.471460         0.103272
 O        -1.526269        -0.742632        -1.052000
 H        -3.497574        -2.075830         0.911740
 H        -2.566403        -2.140158         2.504879
 H        -3.706567        -0.803506         2.184521
 H        -1.321090        -0.195191         2.052564
 H        -2.797042         0.800921        -0.418169
 H        -0.585330         1.467114        -1.037050
 H        -0.604118         2.023928         0.550502
 H         0.688951        -2.593044         0.913013
 H        -0.742932        -3.444391         0.130309
 H         0.352084        -2.567724        -0.907177
