19
Iteration:  4838
 C        -2.778971        -1.515858         1.625162
 C        -1.663282        -0.641083         1.186482
 C        -1.961416         0.300028        -0.033391
 C        -0.715659         1.150728        -0.110461
 C         0.315436         0.008045        -0.030235
 O         1.471049         0.005926         0.338882
 C        -0.736459        -1.180240         0.005847
 C        -0.259034        -2.599652         0.099979
 O        -1.739555        -0.739571        -1.052202
 H        -3.330846        -1.910582         0.792444
 H        -2.312492        -2.305685         2.106816
 H        -3.390974        -0.999795         2.337418
 H        -1.336837        -0.182796         2.057869
 H        -2.908910         0.870085        -0.116101
 H        -0.726043         1.897221        -0.992956
 H        -0.516368         1.960992         0.663202
 H         0.244550        -2.737328         1.107622
 H        -1.169240        -3.263388        -0.190575
 H         0.562510        -2.894631        -0.550089
