19
Iteration:  2396charge 0 multiplicity 1
 C        -3.044886        -1.409612         1.426993
 C        -1.704661        -0.751158         1.216003
 C        -1.986534         0.235271         0.125195
 C        -0.683521         1.154634        -0.044687
 C         0.240149         0.029690         0.076864
 O         1.469196         0.170876        -0.087663
 C        -0.643296        -1.197318         0.217198
 C        -0.161912        -2.668367         0.114659
 O        -1.535464        -0.775427        -0.873186
 H        -3.158787        -2.389390         0.922042
 H        -3.034520        -1.601440         2.465185
 H        -3.893056        -0.786007         1.125731
 H        -1.310346        -0.397088         2.208530
 H        -2.910712         0.704554        -0.067826
 H        -0.734472         1.539627        -1.087970
 H        -0.602593         1.942407         0.746408
 H         0.667099        -2.945326         0.752709
 H        -1.011390        -3.332105         0.326822
 H         0.101696        -2.815171        -0.880353
