19
Iteration:  3122
 C        -2.950257        -1.438810         1.682250
 C        -1.779781        -0.687353         1.152731
 C        -2.004416         0.344518        -0.084333
 C        -0.789390         1.209158        -0.047475
 C         0.250605        -0.036509         0.053266
 O         1.450567        -0.086268         0.127746
 C        -0.728689        -1.214148         0.128662
 C        -0.023723        -2.541102         0.124124
 O        -1.559045        -0.722320        -1.026413
 H        -3.335866        -2.111657         0.865213
 H        -2.634863        -2.153103         2.515053
 H        -3.724856        -0.761406         2.099087
 H        -1.402624        -0.197803         2.089135
 H        -2.851555         0.792564        -0.476006
 H        -0.620663         1.592563        -1.063414
 H        -0.665731         1.854696         0.828314
 H         0.904312        -2.610086         0.816963
 H        -0.703321        -3.448101         0.252679
 H         0.306556        -2.689861        -0.937084
