19
Iteration:  4413charge 0 multiplicity 1
 C        -2.853331        -1.595877         1.549559
 C        -1.740847        -0.580630         1.205891
 C        -1.973155         0.391514        -0.110426
 C        -0.703469         1.216071         0.052560
 C         0.267037        -0.019551        -0.031535
 O         1.506764        -0.072463         0.038784
 C        -0.746702        -1.154288         0.208716
 C        -0.161548        -2.520309         0.112584
 O        -1.691297        -0.789460        -0.937812
 H        -3.177347        -2.076839         0.602681
 H        -2.720987        -2.374406         2.317277
 H        -3.748053        -0.986453         1.828898
 H        -1.326878        -0.212557         2.109594
 H        -2.998227         0.719270        -0.283807
 H        -0.490260         1.859986        -0.762580
 H        -0.434540         1.537825         1.137517
 H         0.412158        -2.712166         1.075117
 H        -0.944896        -3.240516        -0.011368
 H         0.553572        -2.605364        -0.757011
