19
Iteration:  3905charge 0 multiplicity 1
 C        -2.753324        -1.572633         1.694562
 C        -1.748055        -0.531696         1.128554
 C        -2.021550         0.380445        -0.069519
 C        -0.774417         1.209822        -0.035184
 C         0.299276        -0.038374        -0.051608
 O         1.472879        -0.119528         0.264758
 C        -0.709637        -1.116998         0.053558
 C        -0.190362        -2.551680         0.002461
 O        -1.687174        -0.800296        -0.921173
 H        -3.044977        -2.078113         0.731762
 H        -2.363215        -2.296258         2.460065
 H        -3.714551        -1.114752         1.941301
 H        -1.205854        -0.127840         1.963691
 H        -2.948386         0.814926        -0.396761
 H        -0.521537         1.805044        -0.968196
 H        -0.798708         1.896849         0.843074
 H         0.508504        -2.659872         0.861093
 H        -1.029255        -3.195831        -0.063706
 H         0.548739        -2.716234        -0.814988
