19
Iteration:   761charge 0 multiplicity 1
 C        -2.832457        -1.472553         1.526837
 C        -1.797865        -0.576660         1.153210
 C        -2.010614         0.357629        -0.072301
 C        -0.832835         1.306977         0.062219
 C         0.237557        -0.036889         0.085910
 O         1.442456        -0.087866         0.045114
 C        -0.719320        -1.188486         0.156458
 C        -0.017700        -2.630497         0.137243
 O        -1.611756        -0.814123        -0.985999
 H        -2.561387        -1.883467         2.492336
 H        -3.861474        -1.076550         1.627244
 H        -2.592760        -2.332554         0.882391
 H        -1.385732         0.013577         1.982743
 H        -3.000404         0.780533        -0.312967
 H        -0.748775         1.780456        -0.849169
 H        -0.715942         1.803689         1.049833
 H         0.876477        -2.643909         0.802660
 H        -0.703402        -3.409351         0.386524
 H         0.305633        -2.756848        -0.882376
