19
Iteration:  1909charge 0 multiplicity 1
 C        -2.885186        -1.513311         1.566200
 C        -1.769436        -0.554073         1.237463
 C        -1.992861         0.332173         0.022243
 C        -0.755859         1.192128         0.015066
 C         0.244340        -0.009218        -0.022742
 O         1.503698         0.069626         0.019500
 C        -0.683284        -1.185545         0.113766
 C        -0.149768        -2.723120         0.086882
 O        -1.613006        -0.767835        -0.925328
 H        -2.576586        -2.515180         1.924773
 H        -3.595858        -1.118421         2.269888
 H        -3.471781        -1.637832         0.659233
 H        -1.198770        -0.183560         2.128930
 H        -3.080562         0.740890        -0.246329
 H        -0.567443         1.740739        -0.993237
 H        -0.679129         1.911000         0.863243
 H         0.856226        -2.715661         0.487755
 H        -0.721902        -3.387566         0.745755
 H        -0.079985        -3.166177        -0.851452
