19
Iteration:   872charge 0 multiplicity 1
 C        -2.951906        -1.673637         1.570726
 C        -1.815214        -0.611896         1.173364
 C        -1.984530         0.325240         0.003523
 C        -0.709731         1.181948        -0.096230
 C         0.294774        -0.000200        -0.006084
 O         1.538312        -0.047311         0.042516
 C        -0.659028        -1.102405         0.083346
 C        -0.027013        -2.565818         0.261749
 O        -1.776341        -0.659502        -0.937309
 H        -2.556052        -2.653044         1.826979
 H        -3.643209        -1.389603         2.375073
 H        -3.581654        -1.927517         0.677571
 H        -1.345787        -0.179297         2.056462
 H        -2.869683         0.879339        -0.005178
 H        -0.686096         1.631686        -1.149695
 H        -0.580208         2.031892         0.500813
 H         0.086775        -2.869135         1.288425
 H        -0.554459        -3.335823        -0.288906
 H         0.996638        -2.552843        -0.128743
