19
Iteration:  4076
 C        -2.789243        -1.580642         1.490447
 C        -1.754386        -0.573893         1.217898
 C        -1.927204         0.304924        -0.017482
 C        -0.752995         1.246321         0.013228
 C         0.285312         0.033902        -0.002087
 O         1.474493        -0.002695         0.003309
 C        -0.622880        -1.156740         0.167590
 C        -0.318648        -2.624551         0.124280
 O        -1.629840        -0.794395        -0.891209
 H        -2.962500        -2.059999         0.522755
 H        -2.445727        -2.055194         2.383082
 H        -3.761777        -1.214208         1.819039
 H        -1.385216        -0.288349         2.190177
 H        -2.882209         0.847824        -0.331158
 H        -0.664863         1.880182        -0.799896
 H        -0.697447         1.738856         0.987007
 H        -0.079225        -3.027414         1.092961
 H        -1.207787        -3.162968        -0.132557
 H         0.367015        -2.735106        -0.729486
