19
Iteration:  3461charge 0 multiplicity 1
 C        -3.057190        -1.557335         1.409421
 C        -1.723638        -0.748692         1.270510
 C        -1.930522         0.373177         0.045975
 C        -0.670304         1.197699        -0.151517
 C         0.335870         0.030589         0.080810
 O         1.497136         0.051762        -0.022597
 C        -0.697298        -1.150790         0.203616
 C        -0.184505        -2.643617         0.146475
 O        -1.649260        -0.765074        -0.818870
 H        -3.419316        -1.888998         0.427292
 H        -2.652723        -2.366065         1.999099
 H        -3.925926        -1.155348         1.927714
 H        -1.394276        -0.013807         2.025143
 H        -2.847624         0.866863        -0.167682
 H        -0.653666         1.649879        -1.269589
 H        -0.441944         1.957947         0.759095
 H         0.854700        -2.501966         0.452558
 H        -0.611933        -3.238220         0.852777
 H        -0.111638        -2.949465        -0.877575
