19
Iteration:  4701
 C        -2.969634        -1.652732         1.543285
 C        -1.908231        -0.658254         1.193478
 C        -1.958436         0.426452        -0.011559
 C        -0.647457         1.273223        -0.049535
 C         0.313476         0.013632         0.087992
 O         1.474780        -0.057622        -0.040731
 C        -0.719418        -1.152617         0.241477
 C        -0.162801        -2.600114         0.123829
 O        -1.548268        -0.702554        -0.906810
 H        -3.066857        -2.475725         0.758750
 H        -2.750223        -2.262623         2.516462
 H        -3.959562        -1.119268         1.552837
 H        -1.308403        -0.372080         2.086337
 H        -2.920197         0.933791        -0.324571
 H        -0.518991         1.523213        -1.064260
 H        -0.496852         1.915639         0.804603
 H         0.824468        -2.655788         0.584618
 H        -0.977416        -3.340522         0.347479
 H         0.209935        -2.812172        -0.923410
