19
Iteration:  4291
 C        -3.000895        -1.562429         1.588407
 C        -1.777091        -0.702264         1.201077
 C        -1.947467         0.302959         0.058353
 C        -0.752785         1.213250        -0.165483
 C         0.286097         0.018248         0.070628
 O         1.489456        -0.149236         0.093500
 C        -0.648334        -1.172763         0.140858
 C        -0.093693        -2.494167         0.064238
 O        -1.655992        -0.649190        -0.942026
 H        -3.586046        -2.028803         0.837646
 H        -2.594737        -2.433470         2.044424
 H        -3.527731        -0.940518         2.301116
 H        -1.340686        -0.176435         2.043949
 H        -2.887185         0.888787        -0.102962
 H        -0.605998         1.473079        -1.247718
 H        -0.581388         2.023913         0.616986
 H         0.598383        -2.613107         0.911616
 H        -0.796382        -3.266729         0.334088
 H         0.424603        -2.427939        -0.935657
