19
Iteration:  4094
 C        -2.863223        -1.646285         1.531756
 C        -1.667736        -0.605361         1.206167
 C        -2.040096         0.352365         0.026291
 C        -0.708981         1.195592        -0.017842
 C         0.368495         0.072671         0.102649
 O         1.588907         0.070942        -0.003741
 C        -0.728032        -1.177282         0.158532
 C        -0.350844        -2.610283         0.076461
 O        -1.651135        -0.835023        -0.924878
 H        -3.129947        -2.076447         0.527986
 H        -2.676416        -2.265550         2.473882
 H        -3.773780        -0.984764         1.791015
 H        -1.247085         0.062900         1.977179
 H        -3.074583         0.549298        -0.145680
 H        -0.535866         1.783400        -0.983673
 H        -0.566172         2.014781         0.717570
 H        -0.076400        -2.891403         1.114000
 H        -1.269358        -3.188620        -0.258874
 H         0.466980        -2.794768        -0.639246
