19
Iteration:  2555charge 0 multiplicity 1
 C        -2.907628        -1.508841         1.679189
 C        -1.755460        -0.701313         1.216826
 C        -1.947046         0.275655         0.038555
 C        -0.791188         1.116008        -0.151779
 C         0.306781         0.012371         0.074290
 O         1.488255         0.082869         0.195429
 C        -0.706150        -1.128892         0.089029
 C        -0.258122        -2.584123        -0.032655
 O        -1.513053        -0.782309        -0.969094
 H        -3.276855        -2.152903         0.837879
 H        -2.956054        -2.077752         2.659341
 H        -3.727419        -0.747709         1.795138
 H        -1.124229        -0.114536         1.925778
 H        -2.965391         0.786133        -0.098875
 H        -0.675940         1.465470        -1.133251
 H        -0.571096         1.992000         0.488270
 H         0.311185        -2.934018         0.802618
 H        -1.180768        -3.177119        -0.299802
 H         0.504820        -2.658643        -0.830156
