19
Iteration:  2744charge 0 multiplicity 1
 C        -2.789973        -1.623555         1.568495
 C        -1.733921        -0.572028         1.150640
 C        -2.027392         0.410763        -0.046633
 C        -0.728508         1.242158        -0.151322
 C         0.281033        -0.044230         0.067681
 O         1.495190        -0.126527         0.197286
 C        -0.731782        -1.151269         0.089603
 C        -0.135454        -2.535872         0.194090
 O        -1.705845        -0.733877        -0.969472
 H        -3.004777        -2.315644         0.731915
 H        -2.397166        -2.284843         2.344194
 H        -3.823228        -1.351538         1.898165
 H        -1.466909         0.008439         2.030588
 H        -2.955261         0.913558        -0.270562
 H        -0.525049         1.649735        -1.064243
 H        -0.698320         2.073131         0.550770
 H         0.064377        -3.003386         1.226184
 H        -0.868282        -3.119486        -0.283399
 H         0.665424        -2.554643        -0.552798
