19
Iteration:   719charge 0 multiplicity 1
 C        -2.924710        -1.646534         1.490660
 C        -1.753512        -0.595842         1.213180
 C        -2.011334         0.361175         0.067869
 C        -0.680454         1.133634        -0.243117
 C         0.321363         0.027488         0.054017
 O         1.539739         0.104363         0.209782
 C        -0.736726        -1.218745         0.222545
 C        -0.127276        -2.596260         0.086987
 O        -1.706046        -0.752198        -0.926792
 H        -2.589786        -2.488623         2.028724
 H        -3.661330        -1.119107         2.091544
 H        -3.387192        -1.976081         0.570523
 H        -1.374487        -0.192509         2.140994
 H        -2.945824         0.849184        -0.033522
 H        -0.739393         1.138986        -1.436228
 H        -0.484000         2.126094         0.108438
 H         0.915267        -2.458120         0.454754
 H        -0.701318        -3.366966         0.568200
 H        -0.189155        -2.761019        -0.991828
