19
Iteration:    96charge 0 multiplicity 1
 C        -2.717753        -1.499586         1.718827
 C        -1.821533        -0.542640         1.053171
 C        -2.067042         0.296801        -0.170995
 C        -0.767565         1.159445        -0.008435
 C         0.256434        -0.028304        -0.012155
 O         1.446997        -0.037752         0.311314
 C        -0.732902        -1.203775         0.044688
 C        -0.100674        -2.450895         0.045157
 O        -1.625361        -0.876464        -0.995445
 H        -2.290775        -2.140779         2.535818
 H        -3.553420        -0.924116         2.174537
 H        -3.205676        -2.208288         1.011850
 H        -1.406126         0.082271         1.866999
 H        -3.029246         0.685561        -0.472822
 H        -0.526019         2.162231        -0.682267
 H        -0.625132         1.504553         1.043925
 H         0.737853        -2.414468         0.788446
 H        -0.727500        -3.281866         0.434540
 H         0.117623        -2.656136        -1.077357
