19
Iteration:  1512charge 0 multiplicity 1
 C        -2.868150        -1.450524         1.532098
 C        -1.652851        -0.612746         1.221061
 C        -2.019230         0.260772         0.020964
 C        -0.769956         1.176362        -0.061523
 C         0.262676         0.001841         0.024238
 O         1.523228         0.092717         0.034837
 C        -0.651392        -1.252600         0.171522
 C        -0.184159        -2.640846         0.052510
 O        -1.701310        -0.767209        -0.889643
 H        -2.544716        -2.421308         1.911877
 H        -3.549244        -1.125425         2.305082
 H        -3.416255        -1.628800         0.622053
 H        -1.169802        -0.222903         2.090209
 H        -3.014137         0.730676        -0.152560
 H        -0.516332         1.774024        -0.967558
 H        -0.849629         1.843629         0.826984
 H         0.111100        -2.820195         1.043563
 H        -0.974974        -3.332258        -0.141556
 H         0.601091        -2.829132        -0.668183
