19
Iteration:  4525charge 0 multiplicity 1
 C        -2.825185        -1.595312         1.673613
 C        -1.728430        -0.658000         1.141265
 C        -1.987052         0.342060         0.008646
 C        -0.724694         1.197972        -0.078827
 C         0.294485         0.020447         0.012305
 O         1.508720        -0.008146         0.270685
 C        -0.693850        -1.168792        -0.015525
 C        -0.283027        -2.602166         0.099549
 O        -1.651235        -0.712732        -1.047142
 H        -3.194138        -2.197077         0.851436
 H        -2.520993        -2.182974         2.558791
 H        -3.692855        -1.049137         2.031865
 H        -1.209069        -0.229816         1.980236
 H        -3.033793         0.733834        -0.087456
 H        -0.608702         1.768390        -1.015303
 H        -0.417811         2.176322         0.572761
 H         0.690684        -2.621580         0.614512
 H        -1.053049        -3.418809         0.479106
 H        -0.076848        -2.917415        -0.931661
