19
Iteration:  3544
 C        -2.945695        -1.480969         1.638761
 C        -1.794505        -0.674009         1.216704
 C        -2.060144         0.306725         0.000642
 C        -0.671145         1.164374        -0.116055
 C         0.272502        -0.047327         0.054973
 O         1.534849        -0.005082         0.112384
 C        -0.727936        -1.175630         0.128430
 C        -0.125154        -2.533506         0.042465
 O        -1.591218        -0.733125        -0.960683
 H        -3.246267        -2.134638         0.761350
 H        -2.726090        -2.283107         2.410960
 H        -3.745252        -0.815493         2.022990
 H        -1.427066        -0.090651         2.092879
 H        -3.047072         0.773093        -0.264277
 H        -0.528638         1.750410        -0.991280
 H        -0.645876         1.859125         0.669385
 H         0.934889        -2.612370         0.417191
 H        -0.733221        -3.387532         0.566405
 H        -0.076290        -3.001439        -0.979171
