19
Iteration:  2246
 C        -2.854908        -1.488877         1.657745
 C        -1.720173        -0.569751         1.270943
 C        -1.958551         0.249916         0.033115
 C        -0.707185         1.235783        -0.128141
 C         0.263572         0.006836         0.024093
 O         1.480554         0.026547         0.242764
 C        -0.684175        -1.173906         0.076121
 C        -0.181476        -2.595252        -0.177189
 O        -1.702630        -0.859310        -0.883535
 H        -2.672858        -2.125330         2.606499
 H        -3.694103        -0.753109         1.732044
 H        -3.197137        -2.071980         0.744630
 H        -1.165080        -0.102011         2.064029
 H        -2.998655         0.563932        -0.014883
 H        -0.556712         1.734651        -1.150276
 H        -0.587482         1.961205         0.643750
 H         0.587316        -2.897508         0.629817
 H        -1.127261        -3.238176        -0.180010
 H         0.308799        -2.765633        -1.170102
