19
Iteration:  1579
 C        -2.852737        -1.612098         1.566914
 C        -1.776139        -0.631084         1.187819
 C        -1.952665         0.336931         0.022594
 C        -0.646301         1.237904        -0.037214
 C         0.278223        -0.026665         0.002468
 O         1.429571        -0.008980         0.020631
 C        -0.687298        -1.165405         0.194114
 C        -0.173092        -2.587800         0.114335
 O        -1.691215        -0.712370        -0.936935
 H        -2.680389        -1.951306         2.560563
 H        -3.824771        -1.127215         1.588881
 H        -2.901381        -2.396464         0.821929
 H        -1.244201        -0.334334         2.033065
 H        -3.001746         0.794378        -0.124306
 H        -0.731488         1.631009        -1.010516
 H        -0.523569         1.959036         0.820089
 H         0.821637        -2.530927         0.483642
 H        -0.710634        -3.380149         0.542336
 H        -0.070424        -2.780362        -0.943976
