19
Iteration:    27charge 0 multiplicity 1
 C        -2.868545        -1.571690         1.433452
 C        -1.687921        -0.516999         1.231225
 C        -1.947750         0.300581        -0.009172
 C        -0.715694         1.145747        -0.192758
 C         0.264889         0.012369         0.056395
 O         1.507297         0.187176         0.201971
 C        -0.656402        -1.192351         0.225952
 C        -0.158918        -2.618584         0.002140
 O        -1.767071        -0.937541        -0.793188
 H        -2.559951        -2.585000         1.759167
 H        -3.739950        -1.073451         1.905810
 H        -3.141671        -1.759258         0.375594
 H        -1.335780         0.106345         2.123155
 H        -2.915831         0.834918        -0.109422
 H        -0.693801         1.658048        -1.177645
 H        -0.706147         2.142011         0.582406
 H         0.739838        -2.972045         0.483045
 H        -0.834991        -3.400530         0.357362
 H        -0.181072        -2.693678        -1.067905
