19
Iteration:  4387
 C        -2.859572        -1.653696         1.540048
 C        -1.786854        -0.559255         1.151072
 C        -2.007634         0.389211        -0.012420
 C        -0.689468         1.231269        -0.027873
 C         0.299505        -0.005653         0.180267
 O         1.516671         0.002997        -0.071239
 C        -0.700412        -1.164022         0.163959
 C        -0.266705        -2.634102         0.105623
 O        -1.570786        -0.717890        -0.908131
 H        -3.150280        -2.447258         0.771918
 H        -2.522418        -2.269115         2.488979
 H        -3.870837        -1.076197         1.881103
 H        -1.446895        -0.108589         2.131482
 H        -3.097804         0.614640        -0.072917
 H        -0.434926         1.540759        -1.148334
 H        -0.549909         2.014869         0.785055
 H        -0.082766        -3.025635         1.144740
 H        -1.207854        -3.226882        -0.204915
 H         0.599215        -2.854689        -0.595900
