19
Iteration:  4945
 C        -3.009808        -1.607621         1.472763
 C        -1.760519        -0.641656         1.158383
 C        -1.954117         0.349642        -0.000805
 C        -0.685281         1.224426         0.106010
 C         0.273588        -0.031759        -0.049724
 O         1.448221        -0.044758        -0.085866
 C        -0.741550        -1.201126         0.155374
 C        -0.123419        -2.577318         0.256893
 O        -1.529870        -0.665934        -0.966711
 H        -3.646656        -1.808527         0.540820
 H        -2.668688        -2.527165         2.057648
 H        -3.630304        -0.876526         2.107062
 H        -1.463140        -0.240529         2.185422
 H        -2.824722         0.985560         0.033254
 H        -0.845829         1.738005        -0.805498
 H        -0.583210         1.592490         1.080214
 H         0.801689        -2.387250         0.855445
 H        -0.597363        -3.215437         0.968505
 H         0.011235        -3.102950        -0.658374
