19
Iteration:  1919charge 0 multiplicity 1
 C        -2.908356        -1.523083         1.582828
 C        -1.711942        -0.604563         1.216248
 C        -2.027945         0.332945        -0.038747
 C        -0.730943         1.188277        -0.019740
 C         0.312025        -0.033914         0.019212
 O         1.467310         0.008772         0.035235
 C        -0.678498        -1.243931         0.083053
 C        -0.140471        -2.581091         0.068562
 O        -1.657588        -0.757948        -0.891611
 H        -2.429566        -2.325295         2.181785
 H        -3.558199        -0.995960         2.248199
 H        -3.378485        -2.009832         0.746963
 H        -1.512680         0.064916         2.101019
 H        -3.071720         0.855882        -0.297713
 H        -0.629989         1.995578        -0.830047
 H        -0.601982         1.664098         0.978350
 H         0.828884        -2.445593         0.545254
 H        -0.740514        -3.267053         0.672071
 H         0.001540        -3.007129        -0.861782
