19
Iteration:  2805
 C        -2.981014        -1.477141         1.636486
 C        -1.750460        -0.736747         1.176016
 C        -1.901433         0.280053        -0.022578
 C        -0.708848         1.132825        -0.132024
 C         0.362480         0.067218         0.046742
 O         1.523377         0.161085         0.205675
 C        -0.720766        -1.320903         0.119134
 C        -0.220916        -2.659846         0.049830
 O        -1.670352        -0.695476        -0.970254
 H        -3.352594        -2.171683         0.875079
 H        -2.686966        -2.033097         2.536393
 H        -3.597704        -0.682755         1.984642
 H        -1.402195        -0.138975         2.053612
 H        -2.844476         0.824773        -0.145834
 H        -0.717476         1.211968        -1.269010
 H        -0.570927         2.157760         0.382782
 H         0.129692        -3.090364         0.971639
 H        -1.044496        -3.302822        -0.409459
 H         0.722044        -2.685268        -0.502302
