19
Iteration:  2607charge 0 multiplicity 1
 C        -2.789851        -1.632981         1.453635
 C        -1.764734        -0.565529         1.176151
 C        -2.009854         0.334668        -0.021482
 C        -0.698221         1.223983        -0.012392
 C         0.202712        -0.065303         0.028536
 O         1.454869        -0.137925         0.123093
 C        -0.761427        -1.118506         0.129122
 C        -0.115633        -2.416058         0.178925
 O        -1.681056        -0.760428        -0.983774
 H        -2.790762        -2.333323         0.578327
 H        -2.343236        -2.081169         2.402309
 H        -3.821914        -1.223835         1.613697
 H        -1.355483         0.042677         2.095368
 H        -3.051656         0.732447        -0.068642
 H        -0.325957         1.749237        -1.030930
 H        -0.227213         1.778509         0.897298
 H         0.736098        -2.413897         0.871747
 H        -0.796976        -3.103182         0.748318
 H         0.060651        -2.938585        -0.806216
