19
Iteration:  1831charge 0 multiplicity 1
 C        -2.845235        -1.538726         1.538900
 C        -1.711546        -0.656251         1.233650
 C        -2.016728         0.411573         0.009908
 C        -0.689742         1.160429        -0.012885
 C         0.191032        -0.016420         0.072280
 O         1.417659        -0.104229        -0.023759
 C        -0.759298        -1.155055         0.075468
 C        -0.037623        -2.489881         0.163464
 O        -1.658681        -0.788720        -0.904182
 H        -2.586270        -2.588186         1.680596
 H        -3.417315        -1.448432         2.438302
 H        -3.535129        -1.539161         0.715913
 H        -1.291250        -0.072844         2.056867
 H        -2.948084         0.965586        -0.459744
 H        -0.585850         1.754869        -0.939730
 H        -0.599625         2.014191         0.722326
 H         0.932695        -2.444094         0.623583
 H        -0.681835        -3.224062         0.558385
 H         0.222957        -2.763233        -0.794610
