19
Iteration:  4144
 C        -2.896361        -1.462730         1.565683
 C        -1.677464        -0.701658         1.250431
 C        -1.968414         0.335275         0.004128
 C        -0.722126         1.177622        -0.122679
 C         0.246248         0.011757         0.045570
 O         1.491399        -0.088325         0.146224
 C        -0.750436        -1.175785         0.094823
 C        -0.080994        -2.529940         0.027803
 O        -1.716109        -0.770564        -0.913642
 H        -3.445521        -1.561114         0.675665
 H        -2.518539        -2.308233         2.067940
 H        -3.497776        -1.040326         2.330516
 H        -1.200818        -0.222465         2.046902
 H        -2.965376         0.740621        -0.162936
 H        -0.680483         1.793895        -1.015066
 H        -0.805554         1.962722         0.602486
 H         0.438045        -2.643827         0.983390
 H        -0.843310        -3.301100        -0.062544
 H         0.537236        -2.577808        -0.850250
