19
Iteration:  4128charge 0 multiplicity 1
 C        -2.949619        -1.572368         1.625135
 C        -1.696356        -0.621837         1.196525
 C        -1.983965         0.378042         0.107010
 C        -0.670676         1.230246        -0.141551
 C         0.201649        -0.013068        -0.040425
 O         1.454074         0.039604         0.121119
 C        -0.688869        -1.228207         0.133906
 C        -0.140782        -2.633818         0.052723
 O        -1.626385        -0.729133        -0.954550
 H        -3.499583        -1.937157         0.655475
 H        -2.786257        -2.598093         2.200031
 H        -3.668147        -0.854470         2.189075
 H        -1.202623        -0.266928         2.199636
 H        -2.998027         0.836594        -0.025452
 H        -0.649849         1.533779        -1.216590
 H        -0.139576         1.843114         0.647021
 H         0.309386        -2.941824         1.022911
 H        -0.918217        -3.425051        -0.097016
 H         0.681246        -2.658967        -0.716235
