19
Iteration:  1896charge 0 multiplicity 1
 C        -2.928946        -1.516304         1.503407
 C        -1.692896        -0.684917         1.216225
 C        -1.927408         0.308862         0.087511
 C        -0.720299         1.207329        -0.078229
 C         0.275510         0.114608         0.116321
 O         1.474159         0.142449        -0.044565
 C        -0.694534        -1.248678         0.224201
 C        -0.206359        -2.732729         0.153443
 O        -1.622977        -0.782636        -0.982079
 H        -2.673592        -2.574906         1.570189
 H        -3.380885        -1.173810         2.425355
 H        -3.613281        -1.439740         0.684660
 H        -1.180256        -0.227342         2.134195
 H        -2.928141         0.826625        -0.058631
 H        -0.786307         1.588001        -1.100006
 H        -0.497882         2.060271         0.603089
 H         0.824970        -3.008245         0.372100
 H        -0.931366        -3.323501         0.701836
 H        -0.479217        -2.897377        -0.857371
