19
Iteration:  3653charge 0 multiplicity 1
 C        -2.741681        -1.608486         1.628798
 C        -1.720941        -0.538050         1.131973
 C        -2.066793         0.374555        -0.088016
 C        -0.717211         1.217080        -0.053627
 C         0.273822        -0.011741         0.058922
 O         1.524167        -0.062390         0.176001
 C        -0.726470        -1.142237         0.121587
 C        -0.231371        -2.573827         0.126808
 O        -1.684829        -0.805340        -1.043725
 H        -3.561315        -1.654910         0.845993
 H        -2.207644        -2.577598         1.905401
 H        -3.263595        -1.229329         2.533365
 H        -1.265738        -0.144662         1.997192
 H        -2.980476         0.927434        -0.430721
 H        -0.822619         1.823547        -0.906712
 H        -0.564986         1.746079         0.956272
 H         0.095971        -2.686975         1.206048
 H        -1.087065        -3.321480         0.000136
 H         0.625077        -2.647138        -0.621821
