19
Iteration:  3679
 C        -2.908232        -1.548762         1.600233
 C        -1.742526        -0.593968         1.156086
 C        -1.944998         0.315719        -0.029162
 C        -0.661216         1.207036        -0.071875
 C         0.236638         0.027927         0.120113
 O         1.450273         0.032587         0.068900
 C        -0.689786        -1.200580         0.142884
 C        -0.183710        -2.622093         0.091497
 O        -1.642101        -0.793006        -0.986899
 H        -3.645070        -1.680794         0.774318
 H        -2.404688        -2.500310         1.898089
 H        -3.472328        -1.203421         2.504503
 H        -1.250752        -0.241736         2.098117
 H        -2.886546         0.778451        -0.250104
 H        -0.624780         1.866951        -1.030958
 H        -0.439995         1.797424         0.827605
 H         0.319571        -2.659046         1.156134
 H        -1.061924        -3.275428         0.154758
 H         0.490126        -2.777433        -0.842233
