19
Iteration:  1229
 C        -2.948583        -1.594699         1.570175
 C        -1.645289        -0.711039         1.207378
 C        -1.996218         0.366881         0.126694
 C        -0.731072         1.178824        -0.147304
 C         0.243597         0.091898         0.079101
 O         1.490400         0.086022         0.015460
 C        -0.653955        -1.213045         0.189062
 C        -0.240849        -2.619480         0.003046
 O        -1.560288        -0.759230        -0.875386
 H        -3.008255        -2.230683         2.449574
 H        -3.603533        -0.793526         1.885765
 H        -3.213592        -2.067736         0.650700
 H        -1.181763        -0.260377         2.101377
 H        -3.069718         0.503830        -0.293304
 H        -0.758075         1.534222        -1.096725
 H        -0.494876         2.081890         0.352083
 H        -0.437086        -2.970265         1.024957
 H        -1.009661        -3.242792        -0.577239
 H         0.800454        -2.810181        -0.347761
