19
Iteration:  1483charge 0 multiplicity 1
 C        -2.994008        -1.546502         1.628683
 C        -1.721400        -0.759376         1.189830
 C        -1.951830         0.346737         0.123228
 C        -0.643735         1.211426        -0.173347
 C         0.380956         0.073690        -0.001807
 O         1.526319         0.274942         0.031543
 C        -0.667376        -1.256192         0.193483
 C        -0.318528        -2.673512         0.050765
 O        -1.643107        -0.842555        -0.947572
 H        -2.609627        -2.519481         1.960048
 H        -3.490087        -1.178933         2.537005
 H        -3.664406        -1.763841         0.775349
 H        -1.188767        -0.506683         2.187817
 H        -2.957918         0.924509        -0.064575
 H        -0.518765         1.581583        -1.164045
 H        -0.607911         1.843144         0.694003
 H        -0.131164        -2.963836         1.162698
 H        -1.277615        -3.122631        -0.252582
 H         0.541980        -2.997425        -0.589392
