19
Iteration:  1950charge 0 multiplicity 1
 C        -2.853981        -1.594846         1.688095
 C        -1.735960        -0.591961         1.227718
 C        -2.029188         0.375283         0.003671
 C        -0.698636         1.257056        -0.055717
 C         0.229855        -0.004761         0.060783
 O         1.464097        -0.172653         0.103947
 C        -0.755294        -1.181524         0.076058
 C        -0.039026        -2.512497        -0.003406
 O        -1.706717        -0.758134        -0.986357
 H        -2.698552        -1.841359         2.746405
 H        -3.901876        -1.250085         1.689887
 H        -2.742337        -2.511299         1.136951
 H        -1.361163         0.045779         2.066977
 H        -2.996258         0.871177        -0.216212
 H        -0.591646         1.621837        -1.052856
 H        -0.501680         2.199614         0.489622
 H         0.719507        -2.436791         0.814668
 H        -0.758976        -3.341787         0.147868
 H         0.524642        -2.472236        -0.948158
