19
Iteration:  2649
 C        -3.011706        -1.525611         1.435722
 C        -1.855818        -0.639768         1.221556
 C        -1.990298         0.268761         0.076033
 C        -0.638745         1.162831        -0.135190
 C         0.337448         0.020440         0.092660
 O         1.526364         0.133796        -0.005720
 C        -0.688173        -1.229954         0.226936
 C        -0.192271        -2.628567         0.147069
 O        -1.553384        -0.757114        -0.875698
 H        -3.624444        -1.613024         0.547353
 H        -2.752351        -2.576410         1.652338
 H        -3.710105        -1.279253         2.228901
 H        -1.439932        -0.187809         2.139613
 H        -3.008906         0.610973        -0.133702
 H        -0.641245         1.671457        -1.199023
 H        -0.577856         2.035768         0.562557
 H         0.875189        -2.629106         0.513383
 H        -0.849247        -3.321990         0.695638
 H        -0.126951        -2.909620        -0.953013
