19
Iteration:   238
 C        -2.894427        -1.624020         1.623244
 C        -1.964141        -0.610957         1.086526
 C        -2.078214         0.354585        -0.095043
 C        -0.767569         1.196843         0.067035
 C         0.329015         0.025348         0.140264
 O         1.537472        -0.081645        -0.089427
 C        -0.786898        -1.142768         0.250961
 C        -0.050000        -2.479268         0.202635
 O        -1.484904        -0.768028        -1.049362
 H        -2.404392        -2.091989         2.516707
 H        -3.832396        -1.163158         2.029088
 H        -3.240706        -2.469632         0.983131
 H        -1.525466        -0.012577         1.928562
 H        -3.072513         0.560298        -0.392295
 H        -0.664636         1.747842        -0.985407
 H        -0.755024         1.770795         1.005929
 H         0.611606        -2.599104         1.042768
 H        -0.557278        -3.458004         0.305056
 H         0.379177        -2.365569        -0.806494
