19
Iteration:   170charge 0 multiplicity 1
 C        -2.909829        -1.543953         1.397120
 C        -1.689753        -0.688602         1.286822
 C        -2.026016         0.238520        -0.044605
 C        -0.699119         1.207348        -0.121617
 C         0.318147         0.167904        -0.012530
 O         1.510536         0.197625         0.094562
 C        -0.580605        -1.196498         0.148994
 C        -0.156287        -2.680019         0.191880
 O        -1.796546        -0.877002        -0.830027
 H        -2.816601        -2.585739         1.815334
 H        -3.684021        -1.047376         2.011649
 H        -3.424697        -1.695306         0.427687
 H        -1.180450        -0.296880         2.224153
 H        -2.934151         0.785490        -0.386669
 H        -0.479178         1.718457        -1.068145
 H        -0.427123         2.108742         0.589280
 H        -0.000396        -2.927136         1.228840
 H        -0.962971        -3.341441         0.024553
 H         0.636399        -2.940380        -0.523094
