19
Iteration:   524
 C        -2.976413        -1.624382         1.490613
 C        -1.874459        -0.581730         1.238371
 C        -1.959111         0.296332        -0.061648
 C        -0.686482         1.248019        -0.063085
 C         0.257842        -0.003247         0.087910
 O         1.454540         0.012464        -0.114092
 C        -0.676196        -1.158921         0.286905
 C        -0.118695        -2.529077         0.227800
 O        -1.547946        -0.821535        -0.919393
 H        -2.463711        -2.448522         2.054519
 H        -3.840508        -1.188702         2.054648
 H        -3.188497        -1.970513         0.451460
 H        -1.583291        -0.024999         2.160714
 H        -2.856663         0.731207        -0.334585
 H        -0.432569         1.815261        -1.034756
 H        -0.629447         1.855520         0.767244
 H         0.543917        -2.679902         1.113277
 H        -0.867737        -3.304261         0.249651
 H         0.444329        -2.643540        -0.707347
