19
Iteration:  4043
 C        -2.951674        -1.622329         1.566984
 C        -1.854063        -0.657694         1.208049
 C        -1.897634         0.377892         0.050076
 C        -0.688951         1.183867         0.018323
 C         0.330016         0.043247         0.088692
 O         1.491055        -0.070262        -0.042176
 C        -0.747244        -1.221801         0.118977
 C        -0.146798        -2.514481         0.170639
 O        -1.663825        -0.691006        -1.003371
 H        -3.395335        -2.124867         0.675079
 H        -2.414243        -2.400177         2.081619
 H        -3.675218        -1.076790         2.164793
 H        -1.281024        -0.316424         2.129939
 H        -2.886633         0.764146        -0.300048
 H        -0.613442         1.501850        -0.966580
 H        -0.531636         2.119018         0.541004
 H         0.556326        -2.457854         0.984060
 H        -0.898401        -3.288057         0.119469
 H         0.605694        -2.643486        -0.640305
