19
Iteration:   476
 C        -3.080246        -1.624200         1.622460
 C        -1.763290        -0.724480         1.131853
 C        -1.922359         0.282022        -0.071838
 C        -0.712380         1.269994        -0.049912
 C         0.271155         0.124766         0.054477
 O         1.466499        -0.031012        -0.009756
 C        -0.749760        -1.231964         0.098470
 C        -0.036036        -2.549268         0.291202
 O        -1.577935        -0.702816        -1.016045
 H        -2.549009        -2.423757         2.081659
 H        -3.572785        -1.016022         2.380257
 H        -3.664073        -1.887466         0.763544
 H        -1.280809        -0.345873         2.048967
 H        -3.026811         0.719407        -0.212622
 H        -0.700813         1.756643        -0.960918
 H        -0.700390         1.961556         0.879818
 H         0.758237        -2.292620         0.993595
 H        -0.678239        -3.299201         0.859583
 H         0.342954        -3.032425        -0.630110
