19
Iteration:  2308charge 0 multiplicity 1
 C        -2.778496        -1.686183         1.652660
 C        -1.713202        -0.671660         1.135729
 C        -2.030638         0.443792        -0.017492
 C        -0.691567         1.225700        -0.139577
 C         0.256620        -0.000496        -0.026901
 O         1.504737        -0.003317         0.225894
 C        -0.658372        -1.220907         0.040533
 C        -0.200565        -2.582582         0.140478
 O        -1.720319        -0.689234        -0.988132
 H        -2.740805        -2.786308         1.599586
 H        -2.912516        -1.390445         2.667415
 H        -3.784227        -1.435801         1.264492
 H        -1.164264        -0.290123         2.096719
 H        -3.037121         0.913759        -0.083270
 H        -0.648291         1.707238        -1.103091
 H        -0.648878         2.084365         0.585182
 H         0.075087        -2.822859         1.136728
 H        -1.127471        -3.172135        -0.072125
 H         0.464357        -2.855483        -0.600556
