19
Iteration:  2897charge 0 multiplicity 1
 C        -2.894839        -1.676192         1.426608
 C        -1.793944        -0.634967         1.217078
 C        -1.951856         0.398693         0.103012
 C        -0.710734         1.267936        -0.202662
 C         0.322539         0.012237         0.009835
 O         1.509538         0.003263         0.076900
 C        -0.744492        -1.171889         0.232915
 C        -0.173964        -2.624889         0.259954
 O        -1.647206        -0.709477        -0.987120
 H        -3.259679        -2.043035         0.474621
 H        -2.763459        -2.554650         2.040821
 H        -3.747486        -1.103003         1.904027
 H        -1.523815        -0.238106         2.189514
 H        -2.988135         0.829382         0.024288
 H        -0.502633         1.512706        -1.247497
 H        -0.306383         1.950535         0.577125
 H         0.830408        -2.727263         0.601086
 H        -0.815273        -3.139478         0.860604
 H        -0.122579        -3.071861        -0.698309
