19
Iteration:  3705charge 0 multiplicity 1
 C        -3.034805        -1.502823         1.501722
 C        -1.744894        -0.648171         1.201073
 C        -1.971601         0.256541         0.076936
 C        -0.781450         1.178275        -0.127442
 C         0.352982         0.012321         0.079227
 O         1.525510         0.032071         0.000618
 C        -0.675549        -1.211104         0.206217
 C        -0.146546        -2.605732         0.065090
 O        -1.587648        -0.712988        -0.854596
 H        -3.429876        -1.916145         0.590323
 H        -2.826817        -2.292434         2.178196
 H        -3.780748        -0.890679         1.973375
 H        -1.249895        -0.444156         2.216662
 H        -3.022235         0.620728        -0.102827
 H        -0.718065         1.506728        -1.194064
 H        -0.466910         2.018867         0.567950
 H         0.556819        -2.643186         0.840405
 H        -0.995555        -3.275922         0.194900
 H         0.185627        -2.578318        -0.908076
