19
Iteration:  1338
 C        -2.892883        -1.527487         1.581338
 C        -1.699142        -0.638426         1.218236
 C        -1.964568         0.337925         0.039258
 C        -0.661550         1.215479        -0.076398
 C         0.319241        -0.007963         0.087307
 O         1.517117         0.244719         0.065769
 C        -0.711969        -1.245698         0.151311
 C        -0.272227        -2.672548         0.046770
 O        -1.669178        -0.889618        -0.942645
 H        -2.621225        -2.559205         1.789011
 H        -3.595260        -1.138487         2.319448
 H        -3.498637        -1.642177         0.690871
 H        -1.325707         0.013592         2.068354
 H        -3.085518         0.640618        -0.246499
 H        -0.328744         1.627149        -0.960623
 H        -0.625589         1.790358         0.811599
 H         0.702865        -2.941213         0.385647
 H        -1.128688        -3.324156         0.400368
 H        -0.228987        -2.717972        -1.074072
