19
Iteration:   686
 C        -2.852896        -1.499021         1.475066
 C        -1.549450        -0.621236         1.216328
 C        -1.968767         0.303483        -0.027166
 C        -0.753410         1.191982        -0.197679
 C         0.293575         0.018395        -0.055437
 O         1.421005         0.177518         0.344214
 C        -0.672229        -1.242971         0.148798
 C        -0.236012        -2.602174         0.080285
 O        -1.699103        -0.923518        -0.913643
 H        -2.749690        -2.543666         1.583116
 H        -3.242659        -1.125979         2.411553
 H        -3.605852        -1.307902         0.717054
 H        -1.102555        -0.199686         2.109146
 H        -2.957829         0.706954        -0.074314
 H        -0.747834         1.684183        -1.282365
 H        -0.600164         1.958731         0.580727
 H         0.754089        -2.838103         0.581238
 H        -1.014044        -3.211434         0.535048
 H        -0.183160        -2.808532        -1.000006
