19
Iteration:   180charge 0 multiplicity 1
 C        -2.913703        -1.527034         1.432265
 C        -1.686682        -0.587758         1.189104
 C        -2.002753         0.245900        -0.034687
 C        -0.789430         1.112491        -0.044324
 C         0.294289         0.052523         0.039605
 O         1.522839         0.188073         0.041190
 C        -0.640030        -1.202018         0.149919
 C        -0.142204        -2.650616         0.203412
 O        -1.696686        -0.831584        -0.886653
 H        -2.622107        -2.526828         1.816089
 H        -3.523681        -0.993637         2.169316
 H        -3.433793        -1.594122         0.468438
 H        -1.372460        -0.160198         2.184851
 H        -3.019455         0.696568        -0.231299
 H        -0.670972         1.568717        -0.955620
 H        -0.740840         1.896027         0.836324
 H         0.235969        -2.827302         1.202942
 H        -1.009190        -3.178586        -0.094331
 H         0.736072        -2.942145        -0.370338
