19
Iteration:  2804
 C        -2.973739        -1.476836         1.630147
 C        -1.747362        -0.741383         1.178384
 C        -1.906280         0.279049        -0.026815
 C        -0.705692         1.138449        -0.134551
 C         0.361247         0.067549         0.045106
 O         1.526303         0.162095         0.207684
 C        -0.713959        -1.321166         0.130754
 C        -0.227594        -2.663103         0.040333
 O        -1.675395        -0.691757        -0.966631
 H        -3.337946        -2.189554         0.885750
 H        -2.685020        -2.026463         2.544302
 H        -3.614118        -0.682392         1.975877
 H        -1.445259        -0.130018         2.060827
 H        -2.854827         0.857226        -0.145273
 H        -0.723144         1.213628        -1.290457
 H        -0.577499         2.124160         0.372766
 H         0.122222        -3.084133         1.011366
 H        -1.069416        -3.338675        -0.410174
 H         0.763229        -2.694751        -0.494745
