19
Iteration:  2682charge 0 multiplicity 1
 C        -3.014874        -1.410238         1.478239
 C        -1.773806        -0.662696         1.199012
 C        -2.016968         0.230139        -0.043359
 C        -0.696603         1.248704        -0.045262
 C         0.299540         0.081189         0.141875
 O         1.513725         0.092757         0.010282
 C        -0.665676        -1.214182         0.172452
 C        -0.152521        -2.665122         0.099092
 O        -1.560596        -0.884670        -0.875263
 H        -3.715912        -1.237761         0.676171
 H        -2.644355        -2.445333         1.502792
 H        -3.447640        -1.097050         2.418685
 H        -1.356117         0.028443         1.933584
 H        -3.069625         0.488522        -0.284352
 H        -0.552150         2.088040        -0.860873
 H        -0.833874         1.724180         0.969328
 H         0.659593        -2.897318         0.826343
 H        -0.852693        -3.488220         0.377796
 H         0.049711        -2.827227        -1.018745
