19
Iteration:  2487
 C        -2.825403        -1.613572         1.567676
 C        -1.696113        -0.646870         1.135818
 C        -2.035146         0.365342         0.011204
 C        -0.732994         1.159261        -0.161252
 C         0.268491         0.005359         0.027647
 O         1.479596        -0.089569         0.195683
 C        -0.715063        -1.166970         0.144375
 C        -0.133964        -2.491608         0.166964
 O        -1.692143        -0.722954        -0.989732
 H        -3.622876        -1.413984         0.826766
 H        -2.584007        -2.744084         1.622070
 H        -3.205177        -1.337021         2.585258
 H        -1.355024        -0.006686         2.057962
 H        -2.991709         0.869550        -0.173570
 H        -0.767509         1.756301        -1.146960
 H        -0.620119         2.022450         0.531276
 H         0.415288        -2.751330         1.072278
 H        -0.925876        -3.176119        -0.067563
 H         0.727859        -2.593157        -0.586527
