19
Iteration:  2530
 C        -2.923694        -1.417485         1.588813
 C        -1.704140        -0.644518         1.216567
 C        -1.995194         0.336644         0.002578
 C        -0.747421         1.200187        -0.120326
 C         0.260776         0.049081         0.079577
 O         1.506743         0.177169         0.215684
 C        -0.656915        -1.192170         0.174141
 C        -0.197069        -2.806650        -0.075906
 O        -1.644094        -0.884761        -0.929090
 H        -3.546364        -1.639943         0.722908
 H        -2.773421        -2.340036         2.200112
 H        -3.496344        -0.747261         2.259221
 H        -1.053588        -0.281149         2.022649
 H        -2.987766         0.727771        -0.142829
 H        -0.500489         1.613814        -1.168548
 H        -0.507631         2.055429         0.535928
 H         0.256957        -3.411554         0.681701
 H        -1.041252        -3.235942        -0.539631
 H         0.640867        -2.757789        -0.809006
