19
Iteration:  4883
 C        -2.968519        -1.587143         1.539142
 C        -1.766477        -0.548375         1.272332
 C        -1.980255         0.339145         0.029077
 C        -0.673583         1.140167        -0.104754
 C         0.288944        -0.062608        -0.010419
 O         1.515954         0.033164         0.128931
 C        -0.695288        -1.156920         0.250791
 C        -0.187128        -2.572365        -0.024099
 O        -1.624391        -0.790611        -0.880266
 H        -3.023261        -2.186263         0.642097
 H        -3.065568        -2.135875         2.406870
 H        -3.844263        -1.006317         1.522455
 H        -1.281565        -0.054074         2.053468
 H        -2.954608         0.881083        -0.176768
 H        -0.622054         1.731882        -1.091929
 H        -0.355843         2.087860         0.473189
 H         0.592862        -2.977702         0.702543
 H        -1.046822        -3.382574        -0.243860
 H         0.355334        -2.502789        -0.955743
