19
Iteration:  4533charge 0 multiplicity 1
 C        -2.834890        -1.606954         1.696569
 C        -1.702454        -0.662352         1.141742
 C        -2.057938         0.344989        -0.016218
 C        -0.669325         1.230449        -0.144285
 C         0.326594         0.088907         0.022760
 O         1.478100        -0.040790         0.268384
 C        -0.786964        -1.189474         0.040062
 C        -0.218132        -2.661761         0.075043
 O        -1.634147        -0.642640        -1.053067
 H        -3.194649        -2.390858         0.950210
 H        -2.488664        -2.075196         2.656007
 H        -3.823550        -1.164019         2.085339
 H        -1.076446        -0.361164         1.969887
 H        -2.989707         0.859145        -0.174583
 H        -0.764791         1.789344        -1.006986
 H        -0.388531         1.758278         0.673511
 H         0.626641        -2.573044         0.796726
 H        -0.996774        -3.306696         0.368713
 H         0.139352        -3.158972        -0.831857
