19
Iteration:   189charge 0 multiplicity 1
 C        -2.889293        -1.501319         1.471086
 C        -1.742423        -0.625710         1.151682
 C        -1.999149         0.303308         0.024511
 C        -0.804775         1.149573        -0.054183
 C         0.301468        -0.033954         0.080938
 O         1.482669         0.162814         0.009956
 C        -0.666429        -1.201256         0.166153
 C        -0.150542        -2.590870         0.212338
 O        -1.584678        -0.850414        -0.960574
 H        -2.569290        -2.468221         1.858183
 H        -3.538591        -1.109055         2.251786
 H        -3.513550        -1.736056         0.607991
 H        -1.318749        -0.023673         1.982393
 H        -3.053835         0.688594        -0.072402
 H        -0.760366         1.708681        -0.903212
 H        -0.854407         1.791527         0.873416
 H         0.139078        -2.853547         1.246135
 H        -0.892729        -3.373435        -0.026418
 H         0.643302        -2.657138        -0.519289
