19
Iteration:   773
 C        -2.865001        -1.507577         1.583999
 C        -1.725589        -0.576178         1.120110
 C        -2.022540         0.303158        -0.063671
 C        -0.816390         1.141065         0.036292
 C         0.242960        -0.020316         0.164144
 O         1.458314        -0.014208        -0.035601
 C        -0.753670        -1.245275         0.152990
 C        -0.071174        -2.584810         0.174489
 O        -1.561693        -0.705501        -1.026158
 H        -2.689088        -1.726482         2.610443
 H        -3.855117        -1.048063         1.511746
 H        -3.098234        -2.427765         1.037306
 H        -1.316769        -0.077018         1.977926
 H        -2.967303         0.720908        -0.284012
 H        -0.579678         1.951812        -0.640046
 H        -0.829551         1.742317         0.931280
 H         0.655959        -2.648751         1.006726
 H        -0.767884        -3.382630         0.289820
 H         0.468324        -2.749643        -0.758634
