19
Iteration:  4637
 C        -2.939392        -1.521837         1.468896
 C        -1.763108        -0.708005         1.176376
 C        -2.013156         0.374660         0.093098
 C        -0.672771         1.189844        -0.012407
 C         0.306674         0.012084         0.024654
 O         1.559266         0.064958         0.006268
 C        -0.685344        -1.219413         0.087319
 C        -0.167603        -2.630761         0.219716
 O        -1.687412        -0.749398        -0.949760
 H        -3.489650        -1.619433         0.555493
 H        -2.776993        -2.565470         1.652029
 H        -3.591893        -1.055114         2.172968
 H        -1.357109        -0.328286         2.109753
 H        -2.987461         0.891488        -0.045459
 H        -0.522575         1.690753        -1.048186
 H        -0.516787         1.940430         0.874223
 H         0.095768        -2.895593         1.268600
 H        -1.066676        -3.294177         0.060099
 H         0.713165        -2.808934        -0.475134
