19
Iteration:  3230
 C        -2.973735        -1.629261         1.584699
 C        -1.770861        -0.620090         1.149179
 C        -2.027436         0.354180        -0.042014
 C        -0.723815         1.192780        -0.011370
 C         0.272489        -0.056192         0.048795
 O         1.532068        -0.014588         0.033445
 C        -0.750603        -1.144456         0.152922
 C        -0.134471        -2.569888         0.155580
 O        -1.557983        -0.713802        -0.956964
 H        -3.241145        -2.287084         0.734811
 H        -2.510723        -2.155194         2.432365
 H        -3.878256        -1.073934         1.824084
 H        -1.300987        -0.053980         1.952636
 H        -2.907492         0.790517        -0.408732
 H        -0.651318         1.903189        -0.930913
 H        -0.588696         2.049810         0.763567
 H         0.853878        -2.567192         0.504159
 H        -0.671324        -3.142268         0.887336
 H        -0.156697        -3.174033        -0.715316
