19
Iteration:   875charge 0 multiplicity 1
 C        -2.970471        -1.667538         1.592713
 C        -1.826447        -0.626056         1.164472
 C        -1.986681         0.344885         0.014454
 C        -0.702108         1.149321        -0.093087
 C         0.303626         0.009252         0.015374
 O         1.525057        -0.043141         0.039233
 C        -0.640671        -1.137581         0.076166
 C        -0.019927        -2.540971         0.251261
 O        -1.774440        -0.651646        -0.969043
 H        -2.532147        -2.636595         1.864693
 H        -3.582353        -1.378740         2.417320
 H        -3.504272        -2.005092         0.746090
 H        -1.446253        -0.112329         2.029943
 H        -2.878604         0.987394         0.071004
 H        -0.618174         1.565286        -1.206173
 H        -0.601696         2.016938         0.535196
 H         0.051969        -2.817391         1.300997
 H        -0.564839        -3.377919        -0.267945
 H         1.004062        -2.535591        -0.151379
