19
Iteration:  1268
 C        -2.770935        -1.645146         1.569994
 C        -1.760580        -0.526251         1.155133
 C        -2.042131         0.365729        -0.077404
 C        -0.611443         1.247914        -0.026778
 C         0.208684        -0.050127         0.050430
 O         1.467704        -0.082359         0.078367
 C        -0.761785        -1.139406         0.140204
 C        -0.058428        -2.523015         0.055086
 O        -1.799240        -0.790016        -0.871093
 H        -2.495292        -2.348315         2.370223
 H        -3.761882        -1.146773         1.765239
 H        -3.022439        -2.303418         0.691522
 H        -1.254365         0.028003         1.972055
 H        -2.913520         0.985335        -0.061432
 H        -0.403887         1.854790        -1.017358
 H        -0.474009         1.700133         0.993870
 H         0.243107        -2.861197         1.079710
 H        -0.709319        -3.269504        -0.315005
 H         0.874498        -2.478164        -0.471801
