19
Iteration:  4812
 C        -2.704191        -1.587394         1.642849
 C        -1.723732        -0.575803         1.152025
 C        -2.004508         0.418989        -0.147637
 C        -0.681494         1.216163        -0.110827
 C         0.240045        -0.047615         0.069104
 O         1.423048        -0.025261         0.306245
 C        -0.760873        -1.162782         0.068541
 C        -0.252417        -2.606074         0.053757
 O        -1.662433        -0.793924        -0.978154
 H        -3.557291        -1.716051         0.938594
 H        -2.223725        -2.628694         1.908423
 H        -3.097808        -1.218636         2.661675
 H        -1.399053         0.046201         2.073033
 H        -2.943432         0.891181        -0.374447
 H        -0.318399         1.695576        -1.011798
 H        -0.562051         2.053885         0.554014
 H         0.374169        -2.871435         0.988716
 H        -1.041392        -3.279246        -0.118580
 H         0.468127        -2.771860        -0.875765
