19
Iteration:  2233charge 0 multiplicity 1
 C        -2.870393        -1.492331         1.671688
 C        -1.657921        -0.652367         1.217386
 C        -2.045725         0.365097         0.038227
 C        -0.691781         1.148080        -0.099890
 C         0.260051         0.001933         0.006349
 O         1.498093        -0.021370         0.226709
 C        -0.720188        -1.212688         0.107349
 C        -0.101926        -2.554731        -0.062254
 O        -1.757215        -0.763087        -0.998322
 H        -2.797465        -1.914858         2.749388
 H        -3.846475        -0.986770         1.757643
 H        -2.935578        -2.421521         1.034423
 H        -1.232051        -0.112362         2.070446
 H        -2.896541         0.889185        -0.156119
 H        -0.728654         1.634818        -1.079863
 H        -0.437051         1.877504         0.692107
 H         0.796249        -2.835971         0.525780
 H        -0.804262        -3.438188         0.018825
 H         0.187822        -2.416693        -1.085971
