19
Iteration:   653
 C        -2.841109        -1.549256         1.791873
 C        -1.728603        -0.581183         1.152051
 C        -2.008776         0.350028        -0.200131
 C        -0.806091         1.234631        -0.122068
 C         0.275574        -0.030570         0.088146
 O         1.457200         0.069704         0.309643
 C        -0.706280        -1.181160         0.060706
 C        -0.102056        -2.648712         0.036779
 O        -1.652230        -0.828930        -1.046696
 H        -2.498317        -2.499323         2.082512
 H        -3.173984        -1.090850         2.717290
 H        -3.742618        -1.675605         1.207847
 H        -1.235321         0.047019         1.879960
 H        -2.969489         0.774598        -0.483614
 H        -0.430509         1.562021        -1.202368
 H        -0.782614         2.155325         0.493655
 H         0.638497        -2.885111         0.862001
 H        -0.892327        -3.406085         0.121685
 H         0.441298        -2.997540        -0.848919
