19
Iteration:  3370charge 0 multiplicity 1
 C        -2.790187        -1.592472         1.702909
 C        -1.731591        -0.573498         1.150206
 C        -2.051187         0.339648        -0.075021
 C        -0.682831         1.239366        -0.069937
 C         0.278159        -0.019118         0.093603
 O         1.460196        -0.014858         0.189978
 C        -0.695712        -1.212822         0.073813
 C        -0.237678        -2.583799         0.125985
 O        -1.641826        -0.752399        -1.097891
 H        -3.346435        -2.198077         0.972706
 H        -2.202777        -2.239823         2.364638
 H        -3.581313        -1.244266         2.334034
 H        -1.368682        -0.007205         2.068567
 H        -2.994087         0.835290        -0.375333
 H        -0.527049         1.659062        -1.100654
 H        -0.602026         2.167904         0.533558
 H         0.031416        -2.930170         1.107871
 H        -1.028032        -3.335033        -0.223776
 H         0.685653        -2.637766        -0.453571
