19
Iteration:  3774
 C        -2.989313        -1.665838         1.562421
 C        -1.762918        -0.698508         1.159502
 C        -1.973713         0.347961         0.012010
 C        -0.673611         1.308739         0.002342
 C         0.280309        -0.024635         0.032008
 O         1.477194        -0.089864        -0.025852
 C        -0.725467        -1.095860         0.140116
 C        -0.151111        -2.547066         0.165489
 O        -1.604768        -0.683882        -0.962734
 H        -2.758418        -2.523261         0.870816
 H        -2.628220        -2.012730         2.584175
 H        -3.979631        -1.253922         1.772545
 H        -1.233558        -0.137463         2.090008
 H        -2.948247         0.740938        -0.244046
 H        -0.696673         1.853034        -0.940460
 H        -0.455740         1.952666         0.854175
 H         0.659533        -2.571659         0.906404
 H        -0.813315        -3.280979         0.616096
 H         0.073352        -2.921265        -0.863008
