19
Iteration:   367charge 0 multiplicity 1
 C        -2.726550        -1.517417         1.804540
 C        -1.778833        -0.710947         1.028581
 C        -1.965613         0.296239        -0.140164
 C        -0.744190         1.242549        -0.132103
 C         0.209152         0.065135         0.037095
 O         1.364187        -0.067564         0.338643
 C        -0.770561        -1.198232         0.028262
 C        -0.067472        -2.536993         0.109781
 O        -1.651723        -0.789343        -1.104344
 H        -2.152292        -2.058253         2.577804
 H        -3.320108        -0.830434         2.433237
 H        -3.485885        -2.212224         1.412742
 H        -1.151008        -0.111032         1.755876
 H        -2.955687         0.895390        -0.372094
 H        -0.697842         1.984283        -0.866947
 H        -0.779259         2.072871         0.677024
 H         0.641999        -2.528319         0.960923
 H        -0.802012        -3.375041         0.259720
 H         0.651944        -2.857024        -0.703132
