19
Iteration:  4609charge 0 multiplicity 1
 C        -2.956427        -1.493348         1.514863
 C        -1.779220        -0.695590         1.251536
 C        -1.945500         0.342667         0.105776
 C        -0.641608         1.229960        -0.185200
 C         0.296493        -0.004934         0.063548
 O         1.471782         0.064950         0.081602
 C        -0.694099        -1.227411         0.170680
 C        -0.159901        -2.609913         0.030805
 O        -1.634616        -0.774532        -0.900456
 H        -3.578843        -1.695794         0.584734
 H        -2.842282        -2.552735         1.813311
 H        -3.642907        -0.950551         2.236878
 H        -1.464369        -0.290593         2.264440
 H        -2.930155         0.785402         0.031482
 H        -0.574341         1.442752        -1.219965
 H        -0.482993         1.929334         0.549025
 H         0.087923        -2.972045         1.037200
 H        -0.925063        -3.243445        -0.329648
 H         0.754739        -2.632140        -0.562625
