19
Iteration:  2775
 C        -2.810252        -1.549684         1.514501
 C        -1.664877        -0.546509         1.236025
 C        -1.921499         0.352829        -0.026022
 C        -0.708997         1.196096        -0.138737
 C         0.251356         0.003323        -0.007459
 O         1.480295         0.051099         0.244049
 C        -0.699999        -1.213875         0.073994
 C        -0.291489        -2.590161         0.076881
 O        -1.670691        -0.857497        -0.868227
 H        -2.813877        -2.339876         0.722396
 H        -2.687627        -2.084822         2.463515
 H        -3.853218        -1.133616         1.484800
 H        -1.372742         0.045243         2.122675
 H        -2.859857         0.821750        -0.245860
 H        -0.618236         1.554558        -1.128696
 H        -0.617104         2.063627         0.631101
 H        -0.228352        -3.190490         0.967750
 H        -1.053444        -3.068094        -0.489822
 H         0.532526        -2.629072        -0.558011
