19
Iteration:  2165charge 0 multiplicity 1
 C        -2.851231        -1.604318         1.488375
 C        -1.751987        -0.549342         1.257678
 C        -2.031877         0.354899         0.044774
 C        -0.682931         1.195717         0.028495
 C         0.331398         0.023002         0.096334
 O         1.496634         0.045856        -0.081811
 C        -0.683879        -1.143013         0.184181
 C        -0.281263        -2.652894         0.034602
 O        -1.658991        -0.800052        -0.879956
 H        -3.271241        -1.574697         2.491914
 H        -3.671974        -1.485703         0.744046
 H        -2.371071        -2.560462         1.337164
 H        -1.247096        -0.221901         2.170193
 H        -2.960380         0.813707        -0.207935
 H        -0.469565         1.660454        -0.919076
 H        -0.443786         1.974549         0.808477
 H         0.749499        -2.727437         0.288219
 H        -0.719090        -3.286514         0.765827
 H        -0.349049        -3.048110        -0.979368
