19
Iteration:  4426charge 0 multiplicity 1
 C        -2.941283        -1.540592         1.510748
 C        -1.723188        -0.607012         1.179876
 C        -2.038573         0.361719         0.028367
 C        -0.662751         1.220100        -0.046409
 C         0.221717        -0.050071         0.006316
 O         1.456047        -0.089650         0.064111
 C        -0.694401        -1.183204         0.087947
 C        -0.063987        -2.565623         0.127912
 O        -1.664262        -0.736572        -0.908622
 H        -3.388161        -2.039633         0.684649
 H        -2.577846        -2.293085         2.153109
 H        -3.638946        -0.999514         2.037966
 H        -1.315551        -0.093664         2.033242
 H        -2.971343         0.872241        -0.185188
 H        -0.484979         2.051744        -0.623657
 H        -0.599077         1.790329         0.918232
 H         0.628273        -2.679228         0.948323
 H        -0.754610        -3.392111         0.298745
 H         0.488901        -2.664160        -0.771127
