19
Iteration:  3305
 C        -2.959585        -1.529631         1.555258
 C        -1.704220        -0.690389         1.183803
 C        -1.908113         0.347272         0.019999
 C        -0.677458         1.178148        -0.250799
 C         0.269930        -0.021043         0.067553
 O         1.500910         0.112304         0.206636
 C        -0.678742        -1.199644         0.160050
 C        -0.210436        -2.601853         0.053742
 O        -1.716835        -0.780017        -0.863768
 H        -3.450203        -1.813546         0.633111
 H        -2.655508        -2.437797         2.073548
 H        -3.565172        -0.876592         2.151973
 H        -1.131044        -0.538918         2.101735
 H        -2.925556         0.759131        -0.022922
 H        -0.455402         1.341835        -1.380745
 H        -0.673221         2.221163         0.271497
 H         0.360008        -2.756111         0.911932
 H        -0.883857        -3.419286        -0.218785
 H         0.485747        -2.626334        -0.748406
