19
Iteration:  1907
 C        -2.879403        -1.514634         1.557693
 C        -1.780778        -0.555093         1.234221
 C        -1.977082         0.328234         0.037940
 C        -0.759754         1.190851         0.007168
 C         0.252307         0.011783        -0.013362
 O         1.496887         0.079595         0.012614
 C        -0.690977        -1.181906         0.129694
 C        -0.150483        -2.743348         0.100128
 O        -1.613143        -0.772091        -0.939615
 H        -2.635809        -2.528337         1.881506
 H        -3.582833        -1.139814         2.299623
 H        -3.463407        -1.567396         0.658749
 H        -1.133363        -0.242211         2.103141
 H        -3.019495         0.716064        -0.210079
 H        -0.586566         1.681859        -0.945008
 H        -0.642791         1.963155         0.806968
 H         0.885132        -2.778622         0.468685
 H        -0.765249        -3.364053         0.755979
 H        -0.131243        -3.125574        -0.907270
