19
Iteration:  1951
 C        -2.849390        -1.594592         1.689219
 C        -1.739643        -0.590160         1.224303
 C        -2.017477         0.370672         0.008576
 C        -0.710122         1.253271        -0.067656
 C         0.236478        -0.013236         0.072617
 O         1.456643        -0.170832         0.104250
 C        -0.759602        -1.177121         0.069972
 C        -0.031413        -2.518890        -0.009607
 O        -1.704320        -0.747658        -0.976153
 H        -2.711897        -1.830513         2.748377
 H        -3.880863        -1.268134         1.663080
 H        -2.750451        -2.521162         1.151604
 H        -1.365686         0.063978         2.062915
 H        -3.036604         0.870773        -0.232408
 H        -0.602806         1.659283        -1.090871
 H        -0.458910         2.183939         0.483628
 H         0.693226        -2.453621         0.819597
 H        -0.762413        -3.329446         0.133337
 H         0.516528        -2.485143        -0.914386
