19
Iteration:  3483charge 0 multiplicity 1
 C        -2.884527        -1.611504         1.425425
 C        -1.822452        -0.636598         1.188264
 C        -1.970664         0.323433         0.053284
 C        -0.663886         1.218142        -0.043484
 C         0.294754         0.012405         0.012612
 O         1.509574        -0.039291        -0.000291
 C        -0.685894        -1.146078         0.217946
 C        -0.204355        -2.575937         0.239012
 O        -1.627539        -0.740194        -0.942949
 H        -3.507180        -1.593360         0.536430
 H        -2.473802        -2.559193         1.718153
 H        -3.535217        -1.219622         2.217057
 H        -1.373688        -0.194550         2.169886
 H        -2.802951         0.930743        -0.195254
 H        -0.829528         1.500595        -1.176511
 H        -0.819301         2.047384         0.774862
 H         0.847463        -2.603918         0.482784
 H        -0.765973        -3.038125         0.950805
 H        -0.373958        -2.845777        -0.779757
