19
Iteration:  3400
 C        -2.945977        -1.531501         1.704122
 C        -1.742181        -0.626908         1.152609
 C        -2.063329         0.356174        -0.039372
 C        -0.646881         1.247489        -0.065068
 C         0.250764        -0.023497         0.070022
 O         1.457916        -0.031637         0.112317
 C        -0.696366        -1.219955         0.134921
 C        -0.120736        -2.534810         0.062200
 O        -1.598438        -0.817606        -1.023325
 H        -3.107169        -2.366965         1.010729
 H        -2.658540        -2.037322         2.665499
 H        -3.863834        -0.914855         1.914939
 H        -1.403709        -0.095426         2.041972
 H        -3.051344         0.853403        -0.357546
 H        -0.459569         1.847190        -0.892196
 H        -0.503308         1.924091         0.712677
 H         0.545439        -2.704738         0.950550
 H        -0.925997        -3.363782        -0.092350
 H         0.481827        -2.600699        -0.890097
