19
Iteration:  3373
 C        -2.819206        -1.585184         1.692085
 C        -1.730572        -0.567775         1.172435
 C        -2.035563         0.333871        -0.087444
 C        -0.701899         1.202136        -0.062091
 C         0.257165        -0.029106         0.086303
 O         1.485175        -0.011617         0.184585
 C        -0.716252        -1.229649         0.077964
 C        -0.222394        -2.587561         0.122700
 O        -1.637967        -0.720338        -1.093319
 H        -3.285929        -2.364636         1.026625
 H        -2.160953        -2.128911         2.376522
 H        -3.544744        -1.140417         2.394395
 H        -1.467114        -0.051305         2.086179
 H        -2.903662         0.806686        -0.433253
 H        -0.594306         1.686758        -1.133458
 H        -0.564937         2.198603         0.554151
 H         0.074860        -2.847837         1.122759
 H        -0.894866        -3.278479        -0.240878
 H         0.638038        -2.649114        -0.516689
