19
Iteration:  1118charge 0 multiplicity 1
 C        -2.885711        -1.655370         1.460566
 C        -1.762713        -0.666871         1.209597
 C        -2.009647         0.357487         0.056272
 C        -0.632387         1.229655        -0.098552
 C         0.284935         0.049835        -0.003354
 O         1.528422        -0.023898         0.025602
 C        -0.766173        -1.120879         0.207891
 C        -0.126862        -2.549387         0.126930
 O        -1.692407        -0.769962        -0.853650
 H        -2.773755        -2.275013         2.322588
 H        -3.754582        -1.030527         1.687580
 H        -3.221311        -2.222858         0.580501
 H        -1.314827        -0.451255         2.188119
 H        -3.019314         0.861793        -0.297404
 H        -0.547967         1.764610        -1.016384
 H        -0.740433         1.990877         0.719639
 H         0.829949        -2.537349         0.756667
 H        -0.813721        -3.337672         0.461314
 H        -0.006031        -2.832471        -0.939368
