19
Iteration:  2604charge 0 multiplicity 1
 C        -2.773121        -1.626469         1.455187
 C        -1.752891        -0.544341         1.207472
 C        -2.035157         0.383519        -0.037282
 C        -0.700216         1.194082         0.011599
 C         0.198217        -0.089724         0.025074
 O         1.468865        -0.125787         0.132494
 C        -0.770883        -1.129565         0.117233
 C        -0.124194        -2.434794         0.174421
 O        -1.685475        -0.770405        -0.996766
 H        -2.769036        -2.393653         0.706831
 H        -2.450322        -2.070369         2.389735
 H        -3.796283        -1.315536         1.632937
 H        -1.347273         0.077159         1.981349
 H        -3.004160         0.773553        -0.187920
 H        -0.347551         1.756982        -0.949981
 H        -0.282247         1.755100         0.829037
 H         0.824196        -2.334903         0.852779
 H        -0.804388        -3.096931         0.660077
 H         0.161642        -2.886663        -0.809306
