19
Iteration:  4246
 C        -2.811212        -1.544121         1.482683
 C        -1.739084        -0.543824         1.221449
 C        -1.926837         0.337961        -0.035208
 C        -0.645091         1.176674        -0.067698
 C         0.278830        -0.001348        -0.031514
 O         1.430423         0.077510         0.209438
 C        -0.708400        -1.194269         0.173635
 C        -0.284176        -2.628606        -0.010215
 O        -1.686742        -0.821927        -0.899489
 H        -2.891553        -2.294312         0.773034
 H        -2.420711        -2.092626         2.291876
 H        -3.565350        -0.899694         1.794301
 H        -1.097177        -0.164119         2.006634
 H        -2.961011         0.716771        -0.032646
 H        -0.580224         1.910979        -0.933622
 H        -0.421095         1.402043         1.003909
 H         0.684538        -2.938437         0.389517
 H        -0.960069        -3.068475         0.747570
 H        -0.429499        -2.926296        -1.072137
