19
Iteration:   321charge 0 multiplicity 1
 C        -2.876643        -1.579992         1.546135
 C        -1.720759        -0.634201         1.155760
 C        -1.923177         0.339226        -0.065523
 C        -0.716769         1.193033        -0.251205
 C         0.242092         0.073722         0.062602
 O         1.435385         0.137155         0.228262
 C        -0.626968        -1.209127         0.280425
 C        -0.179000        -2.638696         0.052418
 O        -1.701449        -0.843595        -0.873855
 H        -2.454920        -2.518555         1.928135
 H        -3.401323        -1.150178         2.381223
 H        -3.587316        -1.770027         0.732755
 H        -1.380686        -0.159574         2.096422
 H        -3.020152         0.661414        -0.326666
 H        -0.650435         1.419685        -1.244373
 H        -0.432752         2.187923         0.231024
 H         0.707881        -2.922661         0.688651
 H        -1.019267        -3.317435         0.149128
 H         0.337456        -2.690474        -0.939371
