19
Iteration:   443
 C        -2.915181        -1.512881         1.409694
 C        -1.723647        -0.562962         1.275803
 C        -1.942877         0.248079        -0.003171
 C        -0.749729         1.137742        -0.203572
 C         0.278446         0.049987         0.069918
 O         1.473533         0.152739         0.111136
 C        -0.654933        -1.186741         0.239881
 C        -0.179593        -2.649662         0.075464
 O        -1.661429        -0.862658        -0.813369
 H        -2.554120        -2.308864         2.089718
 H        -3.816232        -1.046424         1.831124
 H        -3.173788        -1.972893         0.455811
 H        -1.366723        -0.034162         2.178230
 H        -2.984864         0.867219        -0.129896
 H        -0.615589         1.482146        -1.178011
 H        -0.498509         2.055928         0.461660
 H         0.747429        -2.899384         0.599510
 H        -1.029735        -3.371352         0.278660
 H         0.178074        -2.733737        -0.984654
