19
Iteration:  3165
 C        -2.985943        -1.531302         1.410141
 C        -1.799453        -0.534704         1.219316
 C        -1.946611         0.306218        -0.026031
 C        -0.688082         1.193437        -0.090072
 C         0.333128         0.003508         0.025646
 O         1.517068         0.038743         0.038106
 C        -0.634785        -1.219196         0.282097
 C        -0.116864        -2.609446         0.146328
 O        -1.705523        -0.810610        -0.870927
 H        -3.554675        -1.820412         0.484823
 H        -2.628015        -2.508248         1.882375
 H        -3.815631        -1.209569         2.083194
 H        -1.261199        -0.190689         2.135800
 H        -2.859035         0.726983        -0.240300
 H        -0.912169         1.822723        -1.032429
 H        -0.556141         1.892902         0.826643
 H         0.944010        -2.493780         0.421166
 H        -0.719328        -3.301343         0.756517
 H        -0.325727        -2.909085        -0.874974
