19
Iteration:  2633charge 0 multiplicity 1
 C        -2.991299        -1.677419         1.436515
 C        -1.726775        -0.679850         1.253827
 C        -1.984015         0.453509        -0.029999
 C        -0.806287         1.289328        -0.126687
 C         0.342891        -0.012519         0.073989
 O         1.534163        -0.027502         0.038151
 C        -0.712997        -1.161303         0.210578
 C        -0.137985        -2.606892         0.191744
 O        -1.616836        -0.728132        -0.910719
 H        -3.445737        -1.924088         0.451550
 H        -2.617217        -2.516808         2.023868
 H        -3.703578        -1.090631         2.040237
 H        -1.325133        -0.228409         2.181649
 H        -2.946547         0.931613        -0.307615
 H        -0.651752         1.542861        -1.109847
 H        -0.551576         2.074361         0.568376
 H         0.805542        -2.650514         0.699320
 H        -0.687235        -3.334441         0.811285
 H        -0.124445        -3.008489        -0.792010
