19
Iteration:    37charge 0 multiplicity 1
 C        -2.935131        -1.591518         1.535462
 C        -1.709624        -0.605798         1.283512
 C        -1.923028         0.239866         0.013866
 C        -0.742409         1.114512        -0.249621
 C         0.318986         0.063169        -0.018019
 O         1.460909         0.169218         0.248035
 C        -0.610067        -1.167595         0.199730
 C        -0.173356        -2.587509         0.025214
 O        -1.702628        -0.829197        -0.895469
 H        -2.745033        -2.587918         1.962872
 H        -3.788230        -1.142520         2.083905
 H        -3.275430        -1.708961         0.488910
 H        -1.281121        -0.027488         2.159443
 H        -2.886606         0.776396        -0.122966
 H        -0.703504         1.404225        -1.263912
 H        -0.552950         2.030727         0.542634
 H         0.829049        -2.844002         0.287723
 H        -0.965335        -3.177421         0.475489
 H        -0.235691        -2.780959        -1.001494
