19
Iteration:  2767charge 0 multiplicity 1
 C        -2.719946        -1.536587         1.475620
 C        -1.683116        -0.542947         1.222484
 C        -1.937622         0.299890        -0.042364
 C        -0.693098         1.194503        -0.105025
 C         0.285802         0.002117        -0.011286
 O         1.417130        -0.014301         0.235601
 C        -0.704205        -1.140409         0.179573
 C        -0.306197        -2.571566         0.029065
 O        -1.693207        -0.846638        -0.880313
 H        -2.796401        -2.323894         0.719396
 H        -2.579513        -2.053766         2.431050
 H        -3.784370        -1.162876         1.451641
 H        -1.422624         0.032043         2.122586
 H        -2.810158         0.890847        -0.350484
 H        -0.667944         1.613572        -1.080911
 H        -0.699665         2.005879         0.557701
 H        -0.224306        -2.839698         1.156597
 H        -0.978061        -3.263737        -0.431720
 H         0.709960        -2.624717        -0.505060
