19
Iteration:  4190charge 0 multiplicity 1
 C        -2.901792        -1.617878         1.653822
 C        -1.776541        -0.597224         1.208072
 C        -1.895998         0.357641        -0.041912
 C        -0.687421         1.190222        -0.144974
 C         0.270844        -0.064503         0.010540
 O         1.420345        -0.006192         0.208706
 C        -0.721227        -1.186445         0.139317
 C        -0.182201        -2.584563        -0.011995
 O        -1.645882        -0.717571        -0.932401
 H        -3.510201        -1.851813         0.858253
 H        -2.495733        -2.340578         2.268454
 H        -3.543736        -1.125049         2.323569
 H        -1.172485        -0.152186         1.993444
 H        -2.818018         0.886377        -0.163970
 H        -0.617304         1.826568        -1.080865
 H        -0.372595         1.949513         0.533681
 H         0.786808        -2.381013         0.453311
 H        -0.679758        -3.477776         0.426636
 H        -0.012238        -2.762282        -1.060224
