19
Iteration:   744
 C        -2.903441        -1.651168         1.531290
 C        -1.742375        -0.578324         1.213015
 C        -2.003543         0.324412        -0.078967
 C        -0.685756         1.207319        -0.102234
 C         0.265814         0.087002         0.042426
 O         1.450308        -0.082360         0.128205
 C        -0.711823        -1.142202         0.149642
 C        -0.075324        -2.480610         0.083982
 O        -1.658380        -0.843010        -0.880502
 H        -2.686681        -2.158887         2.498610
 H        -3.827820        -1.056976         1.672606
 H        -3.203485        -2.371145         0.757005
 H        -1.458411         0.000931         2.136705
 H        -2.973804         0.768091        -0.309157
 H        -0.453161         1.969445        -1.005988
 H        -0.654604         1.842666         0.790228
 H         0.871595        -2.437935         0.612360
 H        -0.800091        -3.218514         0.539592
 H         0.022510        -2.773281        -0.998848
