19
Iteration:  2210
 C        -2.832611        -1.599717         1.702274
 C        -1.750372        -0.668879         1.153052
 C        -1.993341         0.364438         0.053310
 C        -0.634019         1.244999        -0.073463
 C         0.193396        -0.031231         0.097485
 O         1.441022        -0.119192         0.114507
 C        -0.807366        -1.197228        -0.031461
 C        -0.030523        -2.511332         0.026402
 O        -1.719130        -0.656239        -0.990756
 H        -2.948093        -1.671160         2.830876
 H        -3.860784        -1.198346         1.537108
 H        -2.780543        -2.635625         1.304663
 H        -1.277654        -0.178458         2.038700
 H        -2.910834         0.768957        -0.091852
 H        -0.461770         1.581521        -1.068830
 H        -0.478199         2.042359         0.726680
 H         0.899743        -2.411535         0.600505
 H        -0.552655        -3.274597         0.647951
 H         0.299304        -2.868097        -0.919071
