19
Iteration:  3633charge 0 multiplicity 1
 C        -2.751180        -1.601258         1.629493
 C        -1.696493        -0.623215         1.173586
 C        -2.001046         0.343150        -0.057609
 C        -0.676108         1.211133        -0.134371
 C         0.236282        -0.002217         0.054090
 O         1.446236        -0.071724         0.207618
 C        -0.733246        -1.166043         0.055658
 C        -0.236093        -2.567591         0.130175
 O        -1.657557        -0.695068        -0.979571
 H        -3.410647        -2.077006         0.827913
 H        -2.188956        -2.451711         2.150467
 H        -3.406044        -1.240300         2.462438
 H        -1.355848        -0.061136         2.018074
 H        -2.977831         0.798712        -0.198637
 H        -0.420490         1.556875        -1.161261
 H        -0.888817         2.062995         0.390194
 H         0.075310        -2.721661         1.229268
 H        -1.098060        -3.201967        -0.191966
 H         0.576095        -2.562420        -0.662778
