19
Iteration:  1941charge 0 multiplicity 1
 C        -2.866149        -1.581525         1.689455
 C        -1.762162        -0.612516         1.197265
 C        -2.033319         0.364428        -0.020483
 C        -0.639514         1.232626         0.013152
 C         0.282173         0.038512        -0.001584
 O         1.458320        -0.150732         0.091477
 C        -0.738423        -1.151690         0.140543
 C        -0.085604        -2.444441         0.042329
 O        -1.731338        -0.821757        -1.023986
 H        -2.537946        -1.977503         2.649452
 H        -3.809753        -1.092775         1.719039
 H        -2.934017        -2.411076         0.990112
 H        -1.166619        -0.239276         2.100577
 H        -3.062116         0.991451        -0.168606
 H        -0.496026         1.520425        -1.099685
 H        -0.785936         2.024465         0.775237
 H         0.805723        -2.467879         0.662293
 H        -0.591184        -3.397408         0.198426
 H         0.284573        -2.579063        -0.912847
