19
Iteration:  2892
 C        -2.942299        -1.659752         1.455537
 C        -1.791703        -0.680717         1.214513
 C        -1.995759         0.415167         0.074190
 C        -0.669135         1.243569        -0.211135
 C         0.266226         0.020880         0.011426
 O         1.522448        -0.012669         0.081952
 C        -0.717228        -1.142678         0.234302
 C        -0.152019        -2.601836         0.248851
 O        -1.644175        -0.704714        -0.986396
 H        -3.302111        -2.052691         0.482522
 H        -2.555511        -2.565992         2.011713
 H        -3.791074        -1.339112         2.041115
 H        -1.437761        -0.258946         2.186766
 H        -2.972728         0.838011        -0.038940
 H        -0.441970         1.639607        -1.221235
 H        -0.127530         1.916695         0.522418
 H         0.862506        -2.642977         0.752878
 H        -0.860585        -3.236557         0.943529
 H        -0.174353        -2.987959        -0.819120
