19
Iteration:  4226
 C        -2.825088        -1.539817         1.563641
 C        -1.643189        -0.635983         1.175461
 C        -1.973423         0.345633        -0.007989
 C        -0.724871         1.231739        -0.080899
 C         0.340353         0.040568         0.093640
 O         1.533683         0.060333         0.208176
 C        -0.642771        -1.206707         0.024063
 C        -0.399674        -2.682065         0.052916
 O        -1.693921        -0.774846        -0.927824
 H        -2.932913        -2.241404         0.720436
 H        -2.604451        -2.259983         2.345040
 H        -3.692853        -0.902048         1.769784
 H        -1.282778        -0.033738         2.140210
 H        -3.008726         0.761973        -0.185592
 H        -0.781033         1.538835        -1.156151
 H        -0.870726         1.969593         0.787365
 H         0.701269        -2.715681         0.231180
 H        -0.916192        -3.339102         0.768248
 H        -0.389288        -3.022209        -1.027353
