19
Iteration:  3837
 C        -2.946588        -1.498091         1.551753
 C        -1.626171        -0.687071         1.235783
 C        -1.985199         0.401442        -0.008518
 C        -0.749142         1.208602        -0.108137
 C         0.314939         0.021408        -0.038147
 O         1.501662         0.079105         0.173131
 C        -0.651613        -1.213131         0.148301
 C        -0.185486        -2.617017         0.039410
 O        -1.698378        -0.880293        -0.871540
 H        -3.621020        -1.507953         0.703521
 H        -2.765769        -2.534509         1.756529
 H        -3.550465        -1.197877         2.354322
 H        -1.304628        -0.103615         2.085223
 H        -2.978987         0.892533        -0.197076
 H        -0.642544         1.759041        -1.050197
 H        -0.405004         1.930179         0.722378
 H         0.429081        -3.083294         0.765819
 H        -1.162821        -3.087913        -0.152683
 H         0.333961        -2.682553        -0.927177
