19
Iteration:  2353charge 0 multiplicity 1
 C        -2.890743        -1.591747         1.553932
 C        -1.830504        -0.614924         1.138373
 C        -1.994631         0.394667        -0.046977
 C        -0.678197         1.244710        -0.041333
 C         0.295860         0.030051         0.076855
 O         1.445226        -0.098195         0.025899
 C        -0.703466        -1.178531         0.240150
 C        -0.060899        -2.509424         0.074100
 O        -1.697521        -0.812165        -0.896392
 H        -2.634205        -2.633745         1.187146
 H        -2.939940        -1.624188         2.626625
 H        -3.918069        -1.401082         1.140231
 H        -1.345535        -0.004868         1.986247
 H        -2.958750         0.762382        -0.258160
 H        -0.482820         1.852844        -0.976537
 H        -0.356021         1.759942         0.865183
 H         0.602014        -2.690909         0.915275
 H        -0.819177        -3.317101         0.061095
 H         0.463575        -2.476922        -0.836085
