19
Iteration:  3095
 C        -2.854885        -1.447080         1.641470
 C        -1.778396        -0.576994         1.165506
 C        -1.940005         0.276224        -0.101833
 C        -0.705280         1.202980        -0.059556
 C         0.267669         0.019196         0.091356
 O         1.497933         0.015743         0.190379
 C        -0.711355        -1.201217         0.079053
 C        -0.169501        -2.562883         0.071497
 O        -1.698657        -0.883538        -0.986954
 H        -3.090514        -2.198607         0.883199
 H        -2.396185        -2.033421         2.423857
 H        -3.823233        -1.050428         1.979495
 H        -1.442728        -0.004142         2.035901
 H        -2.914545         0.784266        -0.473899
 H        -0.506427         1.770937        -1.022858
 H        -0.553745         1.718583         1.029137
 H         0.294445        -2.751953         0.985906
 H        -0.928449        -3.249100        -0.244414
 H         0.501481        -2.665943        -0.776374
