19
Iteration:  2296charge 0 multiplicity 1
 C        -2.871289        -1.638678         1.688816
 C        -1.703169        -0.692879         1.200034
 C        -1.928458         0.365100         0.023875
 C        -0.687992         1.148318        -0.199984
 C         0.330802         0.034672         0.011753
 O         1.470019         0.133827         0.235407
 C        -0.726831        -1.142185        -0.011572
 C        -0.285771        -2.661224         0.052868
 O        -1.690962        -0.716801        -0.941226
 H        -2.537968        -2.667172         1.646886
 H        -3.060336        -1.436200         2.734874
 H        -3.760082        -1.500322         1.094584
 H        -1.030333        -0.368126         2.070781
 H        -2.864057         0.946188        -0.289564
 H        -0.642367         1.475445        -1.205281
 H        -0.409247         1.955878         0.557404
 H         0.111030        -2.891023         1.016515
 H        -1.121577        -3.328878        -0.202713
 H         0.549039        -2.846363        -0.593921
