19
Iteration:  1186
 C        -2.892889        -1.530333         1.569131
 C        -1.804448        -0.620596         1.232014
 C        -2.046662         0.332443        -0.055900
 C        -0.721685         1.128998         0.034323
 C         0.343076         0.046677         0.040036
 O         1.535362         0.107445        -0.027142
 C        -0.644595        -1.119811         0.104093
 C        -0.200948        -2.656352         0.123948
 O        -1.666909        -0.873267        -0.925903
 H        -2.505643        -2.492957         1.940766
 H        -3.442843        -1.135773         2.445231
 H        -3.523609        -1.661563         0.702020
 H        -1.403461        -0.213975         2.153750
 H        -2.843550         1.039145        -0.300100
 H        -0.522212         1.915940        -0.647400
 H        -0.493894         1.775293         0.942322
 H        -0.205447        -3.006785         1.148450
 H        -0.872813        -3.299235        -0.555336
 H         0.765884        -2.678981        -0.434438
