19
Iteration:  3092charge 0 multiplicity 1
 C        -2.838844        -1.452954         1.630115
 C        -1.760232        -0.596279         1.190323
 C        -1.948976         0.301876        -0.098407
 C        -0.698350         1.191359        -0.051753
 C         0.291552         0.028855         0.067636
 O         1.492083         0.029680         0.199157
 C        -0.728836        -1.223659         0.076472
 C        -0.188354        -2.562314         0.079803
 O        -1.695156        -0.890782        -0.982515
 H        -3.104680        -2.165589         0.863063
 H        -2.416190        -2.052784         2.398056
 H        -3.830961        -1.122667         1.935858
 H        -1.399427         0.066165         2.001268
 H        -2.843615         0.836587        -0.522457
 H        -0.525615         1.643719        -0.948497
 H        -0.674016         1.821126         0.840026
 H         0.261107        -2.798599         1.087557
 H        -1.027296        -3.136643        -0.309850
 H         0.503169        -2.599218        -0.814666
