19
Iteration:   481charge 0 multiplicity 1
 C        -3.044167        -1.583017         1.621559
 C        -1.785039        -0.678441         1.087837
 C        -1.920532         0.277626        -0.086862
 C        -0.711536         1.297845         0.015821
 C         0.277177         0.127208         0.058168
 O         1.430624        -0.074749        -0.026906
 C        -0.718730        -1.241021         0.115557
 C        -0.005362        -2.549623         0.295686
 O        -1.600497        -0.715703        -1.029348
 H        -2.613715        -2.578046         2.050468
 H        -3.678731        -1.182178         2.488256
 H        -3.751746        -2.070037         0.851325
 H        -1.285082        -0.257614         1.985783
 H        -2.871427         0.553026        -0.266648
 H        -0.624101         2.036054        -0.917056
 H        -0.829428         1.921001         0.840718
 H         0.780884        -2.282631         1.038461
 H        -0.662198        -3.230942         0.794900
 H         0.381783        -3.105335        -0.549083
