19
Iteration:  2986charge 0 multiplicity 1
 C        -2.961240        -1.475964         1.684548
 C        -1.813943        -0.642944         1.146625
 C        -1.941946         0.304718        -0.113969
 C        -0.755812         1.153578        -0.064290
 C         0.221048         0.048998         0.065218
 O         1.459105        -0.103211         0.112696
 C        -0.761136        -1.222005         0.164725
 C        -0.070761        -2.508532         0.093010
 O        -1.522095        -0.747860        -0.999169
 H        -3.477493        -2.065316         0.904431
 H        -2.609879        -2.249649         2.408743
 H        -3.659714        -0.880877         2.334721
 H        -1.130333        -0.344076         1.952362
 H        -2.995031         0.703526        -0.351586
 H        -0.499438         1.747847        -1.045187
 H        -0.638512         2.038642         0.676315
 H         0.575691        -2.609213         0.922218
 H        -0.875657        -3.193463         0.197486
 H         0.552491        -2.468561        -0.805641
