19
Iteration:  2759charge 0 multiplicity 1
 C        -2.713672        -1.593409         1.469543
 C        -1.734132        -0.506332         1.178285
 C        -2.019353         0.316992        -0.055315
 C        -0.686967         1.173697        -0.154690
 C         0.229813         0.030062         0.061526
 O         1.471471        -0.092138         0.223901
 C        -0.703721        -1.098935         0.212339
 C        -0.257295        -2.563298         0.051515
 O        -1.715118        -0.796893        -0.911915
 H        -2.648228        -2.307883         0.668454
 H        -2.459261        -2.013698         2.451400
 H        -3.606659        -1.004284         1.609380
 H        -1.177767        -0.108643         2.045713
 H        -3.061382         0.734595        -0.213704
 H        -0.613200         1.791154        -1.137031
 H        -0.545692         1.838991         0.695387
 H         0.067287        -2.834453         1.095212
 H        -1.045239        -3.265614        -0.375808
 H         0.835006        -2.751413        -0.261253
