19
Iteration:  3921charge 0 multiplicity 1
 C        -2.727169        -1.573347         1.591680
 C        -1.692527        -0.569185         1.169506
 C        -2.018447         0.309204        -0.052161
 C        -0.716519         1.240040        -0.076532
 C         0.241953         0.011431         0.161466
 O         1.492767        -0.068510         0.191429
 C        -0.749819        -1.179331         0.089299
 C        -0.244509        -2.583149         0.044153
 O        -1.698114        -0.762029        -1.044284
 H        -2.818590        -2.442866         0.939936
 H        -2.214770        -1.929878         2.494982
 H        -3.643958        -0.972636         1.887278
 H        -1.292608         0.119097         2.105106
 H        -3.049154         0.737930        -0.166933
 H        -0.602026         1.894134        -0.902464
 H        -0.551208         1.841442         0.808535
 H         0.453357        -2.781434         0.860065
 H        -1.089463        -3.343608         0.138513
 H         0.204007        -2.743178        -0.927384
