19
Iteration:  1789charge 0 multiplicity 1
 C        -2.894655        -1.545137         1.712658
 C        -1.764740        -0.635145         1.189128
 C        -1.998714         0.387884        -0.004401
 C        -0.720687         1.170850        -0.031600
 C         0.267296         0.019090         0.054917
 O         1.464250         0.011282         0.036330
 C        -0.675805        -1.214417         0.050899
 C        -0.109506        -2.614334         0.018793
 O        -1.682288        -0.749904        -0.937933
 H        -2.537932        -2.077550         2.633633
 H        -3.819718        -1.005884         1.935351
 H        -3.139616        -2.239068         0.913631
 H        -1.252421        -0.272091         2.057799
 H        -2.974465         0.961951        -0.308277
 H        -0.393559         1.524937        -1.073033
 H        -0.567446         1.995654         0.716758
 H         0.293521        -2.756226         1.041268
 H        -0.873679        -3.403670        -0.060391
 H         0.740490        -2.772891        -0.595805
