19
Iteration:   631
 C        -2.780585        -1.537171         1.807651
 C        -1.848615        -0.623868         1.104016
 C        -2.026681         0.282896        -0.138044
 C        -0.698949         1.174026        -0.217762
 C         0.195100         0.043196         0.142065
 O         1.364358        -0.059013         0.220548
 C        -0.798524        -1.265355         0.166164
 C        -0.106839        -2.482130         0.032241
 O        -1.485249        -0.714111        -1.057449
 H        -2.102212        -2.119199         2.366346
 H        -3.346999        -1.063573         2.602020
 H        -3.504656        -2.195384         1.362609
 H        -1.296024        -0.137798         1.903825
 H        -2.989050         0.747735        -0.413336
 H        -0.668279         1.751907        -1.234587
 H        -0.520327         1.973542         0.562796
 H         0.391917        -2.800919         1.001683
 H        -0.760158        -3.334743        -0.124562
 H         0.734191        -2.590488        -0.672054
