19
Iteration:  1574
 C        -2.897111        -1.661614         1.584547
 C        -1.774930        -0.609394         1.165834
 C        -1.991868         0.379687         0.025085
 C        -0.638636         1.207929        -0.003715
 C         0.240320        -0.030167        -0.033437
 O         1.475513        -0.033947         0.026715
 C        -0.667678        -1.171542         0.230641
 C        -0.147972        -2.552154         0.103972
 O        -1.712175        -0.710105        -0.974277
 H        -2.587541        -1.989654         2.631456
 H        -3.853477        -1.095783         1.672539
 H        -2.893649        -2.539592         0.901782
 H        -1.301674        -0.196671         2.157016
 H        -2.907060         0.877589        -0.066364
 H        -0.582262         1.598672        -1.100681
 H        -0.542736         2.047603         0.683695
 H         0.921276        -2.522360         0.498987
 H        -0.795924        -3.343976         0.611775
 H         0.088245        -2.722435        -0.983275
