19
Iteration:  1662charge 0 multiplicity 1
 C        -2.860247        -1.541699         1.594162
 C        -1.744451        -0.600795         1.160554
 C        -2.041530         0.300893        -0.016475
 C        -0.719882         1.136603        -0.116935
 C         0.232307         0.065161         0.079161
 O         1.474335        -0.095876         0.067466
 C        -0.698949        -1.111193         0.215658
 C        -0.124267        -2.553182         0.028283
 O        -1.635719        -0.735343        -0.932798
 H        -2.486115        -2.600244         1.678541
 H        -3.227810        -1.219050         2.585234
 H        -3.797711        -1.765373         1.042417
 H        -1.296888        -0.158699         2.154432
 H        -2.950420         0.799880        -0.053657
 H        -0.503093         1.737621        -1.034731
 H        -0.683072         1.899500         0.624901
 H         0.771753        -2.589398         0.717395
 H        -0.786958        -3.335028         0.540083
 H         0.253660        -2.857540        -1.021487
