19
Iteration:  3872charge 0 multiplicity 1
 C        -2.891359        -1.530505         1.663139
 C        -1.714527        -0.676839         1.166669
 C        -2.006272         0.433584         0.049260
 C        -0.718976         1.171028        -0.182913
 C         0.293742        -0.046023         0.080363
 O         1.461225         0.015373         0.221499
 C        -0.758942        -1.241460         0.106690
 C        -0.101811        -2.555323        -0.007083
 O        -1.701871        -0.751007        -0.949028
 H        -3.377720        -1.618336         0.651583
 H        -2.561963        -2.562610         1.915714
 H        -3.392291        -0.895995         2.401568
 H        -0.934327        -0.347619         2.083715
 H        -3.001615         0.840923        -0.095411
 H        -0.475362         1.242630        -1.287944
 H        -0.543622         2.168862         0.307801
 H         0.302913        -2.875534         0.977078
 H        -0.752910        -3.380589        -0.205543
 H         0.586843        -2.493271        -0.889154
