19
Iteration:   628
 C        -2.797256        -1.541757         1.794875
 C        -1.839709        -0.618705         1.114113
 C        -2.020211         0.262839        -0.131060
 C        -0.721424         1.150226        -0.206570
 C         0.194001        -0.001839         0.119787
 O         1.378762        -0.065734         0.214172
 C        -0.799589        -1.217353         0.166640
 C        -0.098032        -2.435177         0.034830
 O        -1.480009        -0.715930        -1.055256
 H        -2.076619        -2.093163         2.454877
 H        -3.386984        -0.999676         2.576597
 H        -3.428676        -2.310441         1.327264
 H        -1.289534        -0.060156         1.892109
 H        -3.054223         0.749320        -0.430766
 H        -0.644437         1.641188        -1.144476
 H        -0.486982         2.024871         0.626831
 H         0.303038        -2.734675         1.020483
 H        -0.820879        -3.277484        -0.218120
 H         0.715964        -2.652261        -0.639408
