19
Iteration:  4784charge 0 multiplicity 1
 C        -2.868114        -1.612230         1.664505
 C        -1.773009        -0.638892         1.165141
 C        -2.033835         0.349996        -0.060195
 C        -0.709604         1.161549        -0.230735
 C         0.297455        -0.033195         0.070541
 O         1.528683        -0.039016         0.264642
 C        -0.711622        -1.119569         0.146353
 C        -0.212359        -2.511801        -0.000349
 O        -1.602848        -0.735985        -0.937665
 H        -3.627728        -1.678680         0.877828
 H        -2.564109        -2.565002         2.020925
 H        -3.365311        -1.216871         2.518186
 H        -1.406092        -0.069581         2.030499
 H        -3.073475         0.772443        -0.073709
 H        -0.325716         1.584309        -1.216163
 H        -0.637014         2.097433         0.421567
 H         0.444930        -2.850580         0.766986
 H        -0.992011        -3.363811         0.076080
 H         0.099702        -2.499592        -0.987761
