19
Iteration:  2490charge 0 multiplicity 1
 C        -2.824287        -1.590455         1.571052
 C        -1.683456        -0.642232         1.156342
 C        -2.057006         0.345708        -0.008418
 C        -0.728019         1.140535        -0.160120
 C         0.263855         0.015490         0.001017
 O         1.514727        -0.064777         0.212996
 C        -0.723416        -1.169953         0.141505
 C        -0.128667        -2.485772         0.166029
 O        -1.709223        -0.734121        -0.988372
 H        -3.594296        -1.367331         0.812104
 H        -2.614629        -2.712625         1.584776
 H        -3.242499        -1.302761         2.556603
 H        -1.358427        -0.098873         2.087661
 H        -3.077216         0.877952        -0.165539
 H        -0.679877         1.663394        -1.075134
 H        -0.577538         1.907331         0.648009
 H         0.352242        -2.837254         1.096544
 H        -0.944319        -3.230977        -0.160348
 H         0.649609        -2.517529        -0.661884
