19
Iteration:  4108
 C        -2.888979        -1.545773         1.563039
 C        -1.761112        -0.694874         1.220849
 C        -1.951907         0.311667         0.028816
 C        -0.689216         1.158848        -0.122521
 C         0.300361         0.029697         0.089092
 O         1.552515         0.122768         0.021211
 C        -0.696018        -1.195918         0.144306
 C        -0.294368        -2.643599         0.088541
 O        -1.663126        -0.700439        -0.905227
 H        -3.226000        -2.300712         0.816034
 H        -2.539900        -2.346306         2.220466
 H        -3.774652        -0.992563         1.959215
 H        -1.299435        -0.500814         2.129283
 H        -2.814042         1.007305        -0.152076
 H        -0.609296         1.496935        -1.102643
 H        -0.597885         1.925348         0.654048
 H         0.129637        -3.024874         1.013925
 H        -1.087680        -3.292902        -0.248332
 H         0.595286        -2.798672        -0.567095
