19
Iteration:  2440charge 0 multiplicity 1
 C        -2.886679        -1.660428         1.506876
 C        -1.851321        -0.528941         1.158497
 C        -1.941880         0.328017        -0.034616
 C        -0.732797         1.133853         0.018007
 C         0.292889        -0.010097         0.022421
 O         1.516372        -0.010930        -0.019191
 C        -0.659136        -1.148668         0.208250
 C        -0.191713        -2.486001         0.184528
 O        -1.636322        -0.776201        -0.946543
 H        -3.352763        -2.180629         0.652690
 H        -2.393619        -2.361253         2.136954
 H        -3.644019        -1.194906         2.131546
 H        -1.719775        -0.173232         2.171966
 H        -2.826612         0.851504        -0.222807
 H        -0.535240         1.745636        -0.924466
 H        -0.569671         1.800644         0.878805
 H         0.642402        -2.593933         0.886359
 H        -1.025503        -3.123754         0.428394
 H         0.222732        -2.747282        -0.737204
