19
Iteration:  1085
 C        -2.897196        -1.454347         1.497502
 C        -1.740949        -0.590013         1.275774
 C        -1.971380         0.249382         0.022901
 C        -0.742761         1.138661         0.030907
 C         0.301135         0.038619         0.001624
 O         1.516405         0.196390         0.054498
 C        -0.708161        -1.222650         0.177724
 C        -0.225737        -2.767504         0.010386
 O        -1.611770        -0.811775        -0.911843
 H        -2.792220        -2.090602         2.359319
 H        -3.741621        -0.779521         1.639676
 H        -2.986264        -2.100361         0.609831
 H        -1.343886         0.010188         2.109360
 H        -3.010227         0.695537        -0.364724
 H        -0.546863         1.734628        -0.838351
 H        -0.735517         1.985493         0.856901
 H         0.919355        -2.961388         0.182134
 H        -0.741017        -3.389675         0.739116
 H        -0.442330        -3.000461        -1.049764
