19
Iteration:   854
 C        -2.844889        -1.580302         1.380400
 C        -1.685955        -0.658705         1.250186
 C        -2.014765         0.396681         0.056169
 C        -0.743556         1.272258        -0.155985
 C         0.258445         0.065256        -0.037474
 O         1.476316        -0.041201         0.031078
 C        -0.720168        -1.216439         0.217689
 C        -0.147309        -2.527003         0.217891
 O        -1.669741        -0.846293        -0.851650
 H        -2.541016        -2.633790         1.565765
 H        -3.393819        -1.279317         2.254946
 H        -3.339351        -1.717381         0.446401
 H        -1.384274        -0.209128         2.205022
 H        -3.057043         0.878378        -0.118149
 H        -0.645159         1.928135        -1.132815
 H        -0.532506         1.894908         0.739576
 H        -0.157541        -2.899975         1.250674
 H        -0.736976        -3.315866        -0.342549
 H         0.888710        -2.507832        -0.161143
