19
Iteration:    62charge 0 multiplicity 1
 C        -2.862028        -1.563870         1.695460
 C        -1.736167        -0.741490         1.038979
 C        -1.979215         0.342581        -0.001824
 C        -0.806776         1.254317        -0.220874
 C         0.243720         0.021919         0.145995
 O         1.483313         0.091856         0.261659
 C        -0.769254        -1.255706         0.082620
 C        -0.121857        -2.620357         0.082560
 O        -1.578769        -0.741268        -0.988577
 H        -2.535155        -2.328433         2.457914
 H        -3.464119        -0.803304         2.250598
 H        -3.570883        -1.981785         0.950370
 H        -1.151373        -0.259723         1.884038
 H        -2.999438         0.729917        -0.123470
 H        -0.707420         1.393253        -1.411274
 H        -0.640044         2.219707         0.420688
 H         0.949165        -2.518201         0.393574
 H        -0.784122        -3.291598         0.631517
 H         0.038652        -3.055034        -0.970178
