19
Iteration:  3629charge 0 multiplicity 1
 C        -2.770210        -1.645358         1.640844
 C        -1.667622        -0.609202         1.149596
 C        -2.026044         0.368662        -0.061094
 C        -0.648217         1.221623        -0.146157
 C         0.259206        -0.010313         0.041628
 O         1.414982        -0.059722         0.214173
 C        -0.726358        -1.160600         0.077430
 C        -0.229843        -2.576746         0.106089
 O        -1.651441        -0.699539        -0.953710
 H        -3.398403        -2.012052         0.833209
 H        -2.226385        -2.386830         2.245572
 H        -3.449316        -1.093079         2.332578
 H        -1.313562        -0.210954         2.137538
 H        -3.001364         0.912353        -0.343334
 H        -0.613937         1.362405        -1.229873
 H        -0.870616         2.174407         0.512769
 H         0.083426        -2.798273         1.090600
 H        -1.071679        -3.274956        -0.137359
 H         0.584118        -2.619966        -0.583914
