19
Iteration:  1299
 C        -2.801734        -1.647256         1.636235
 C        -1.730006        -0.638684         1.162040
 C        -2.052023         0.341967         0.011376
 C        -0.764725         1.229736        -0.086154
 C         0.278878        -0.024653         0.047323
 O         1.454647        -0.121888         0.094700
 C        -0.719827        -1.147177         0.108113
 C        -0.137592        -2.505193         0.143842
 O        -1.635259        -0.666425        -1.038058
 H        -2.581145        -2.560259         2.237553
 H        -3.460196        -1.149501         2.377672
 H        -3.188458        -1.930131         0.630911
 H        -1.273734        -0.114067         1.996899
 H        -2.933388         0.844656         0.152611
 H        -0.759781         1.842275        -1.107411
 H        -0.560395         2.017490         0.733992
 H         0.426306        -2.736563         1.081372
 H        -0.900481        -3.253635         0.190945
 H         0.472486        -2.692409        -0.756701
