19
Iteration:   705charge 0 multiplicity 1
 C        -2.879334        -1.536388         1.456550
 C        -1.714368        -0.629021         1.242451
 C        -1.943686         0.346385         0.044442
 C        -0.728825         1.176056        -0.322599
 C         0.257974         0.083981         0.102823
 O         1.439865         0.141914         0.245938
 C        -0.668656        -1.195306         0.095155
 C        -0.148651        -2.762154         0.055840
 O        -1.693705        -0.765138        -0.809887
 H        -2.452312        -2.533215         1.716832
 H        -3.596966        -1.293181         2.283294
 H        -3.533768        -1.631654         0.570261
 H        -1.318997        -0.138736         2.156144
 H        -2.990398         0.832078        -0.123312
 H        -0.620103         1.386540        -1.367728
 H        -0.487296         2.173144         0.209884
 H         0.864827        -2.965254         0.446703
 H        -0.712163        -3.461151         0.673645
 H         0.041473        -3.229461        -0.902218
