19
Iteration:  4254charge 0 multiplicity 1
 C        -2.839916        -1.529796         1.520175
 C        -1.722841        -0.560267         1.185305
 C        -1.895622         0.346896        -0.025877
 C        -0.635700         1.139363        -0.072110
 C         0.232978        -0.046174         0.023048
 O         1.437180         0.049938         0.167817
 C        -0.675854        -1.192942         0.123197
 C        -0.270889        -2.582875         0.001734
 O        -1.684057        -0.785734        -0.863125
 H        -3.072552        -2.257034         0.688316
 H        -2.360116        -2.126155         2.365126
 H        -3.848899        -1.147743         1.943217
 H        -1.450932        -0.134227         2.146985
 H        -2.848805         0.815886        -0.206054
 H        -0.591088         1.847302        -0.915625
 H        -0.626996         1.700785         0.845563
 H         0.774593        -2.554342         0.341042
 H        -0.902925        -3.327290         0.558015
 H        -0.199464        -2.971428        -0.980921
