19
Iteration:  3024
 C        -2.816269        -1.517048         1.501818
 C        -1.708373        -0.594048         1.159439
 C        -1.994715         0.305128        -0.050355
 C        -0.632789         1.157266        -0.180293
 C         0.291291         0.011975         0.052209
 O         1.499648         0.051274         0.228082
 C        -0.763316        -1.154888         0.109107
 C        -0.145284        -2.561086         0.158813
 O        -1.787904        -0.823612        -0.893764
 H        -3.413079        -1.709901         0.590569
 H        -2.269031        -2.429875         1.801881
 H        -3.497226        -1.168160         2.275988
 H        -1.156183        -0.253726         2.077273
 H        -2.886859         0.833763        -0.208564
 H        -0.565591         1.553661        -1.128681
 H        -0.767268         1.872660         0.540955
 H        -0.040604        -2.956117         1.235569
 H        -0.969342        -3.235179        -0.309603
 H         0.637390        -2.952290        -0.503571
