19
Iteration:  2796charge 0 multiplicity 1
 C        -2.914207        -1.493781         1.596030
 C        -1.718534        -0.704019         1.177406
 C        -2.000724         0.306080         0.002206
 C        -0.666095         1.153889        -0.215248
 C         0.314936         0.041830         0.062693
 O         1.558595         0.160357         0.221651
 C        -0.662517        -1.223903         0.213613
 C        -0.244646        -2.737209        -0.018390
 O        -1.699034        -0.728659        -0.956119
 H        -3.340705        -2.265165         0.931484
 H        -2.734746        -2.008898         2.539521
 H        -3.808321        -0.881239         1.760478
 H        -1.405623        -0.212092         2.122191
 H        -2.878401         0.892070        -0.142014
 H        -0.647704         1.525672        -1.232769
 H        -0.541578         2.102944         0.493773
 H        -0.184552        -2.914978         1.023083
 H        -0.940706        -3.464143        -0.345394
 H         0.665912        -2.830681        -0.491881
