19
Iteration:  2579charge 0 multiplicity 1
 C        -2.843046        -1.597847         1.605356
 C        -1.805670        -0.629131         1.119721
 C        -1.928441         0.334931        -0.096814
 C        -0.687400         1.273379        -0.080306
 C         0.289550         0.027860         0.090972
 O         1.478561        -0.035722         0.166412
 C        -0.741954        -1.182897         0.132036
 C        -0.127513        -2.620565         0.074860
 O        -1.737193        -0.735072        -0.961166
 H        -2.915649        -2.566643         1.062036
 H        -2.547331        -1.854658         2.616884
 H        -3.870577        -1.223884         1.757207
 H        -1.351685        -0.028608         1.884291
 H        -2.928595         0.816302        -0.169235
 H        -0.437643         1.850563        -0.890048
 H        -0.540624         1.890187         0.786645
 H         0.645751        -2.688080         0.870919
 H        -0.967058        -3.355478         0.211011
 H         0.409309        -2.814050        -0.842134
