19
Iteration:  3154charge 0 multiplicity 1
 C        -3.001425        -1.519085         1.521067
 C        -1.801192        -0.696758         1.206898
 C        -1.991606         0.376596        -0.050936
 C        -0.743210         1.188573        -0.083292
 C         0.266832        -0.003542         0.074957
 O         1.519232        -0.012368         0.037982
 C        -0.685857        -1.161331         0.181996
 C        -0.074333        -2.550977         0.149327
 O        -1.621531        -0.796822        -0.890103
 H        -3.488715        -1.758221         0.544053
 H        -2.752900        -2.471513         2.089998
 H        -3.643709        -0.861007         2.143242
 H        -1.387234        -0.284705         2.171619
 H        -2.852139         0.826982        -0.409313
 H        -0.467737         1.666095        -1.092130
 H        -0.485007         1.996523         0.662240
 H         0.990546        -2.664829         0.408242
 H        -0.616071        -3.308847         0.748864
 H        -0.062505        -2.835965        -0.906026
