19
Iteration:  4007charge 0 multiplicity 1
 C        -2.966541        -1.453245         1.460660
 C        -1.714740        -0.609411         1.257737
 C        -1.934833         0.324371         0.048413
 C        -0.736175         1.189893        -0.008641
 C         0.262101         0.011400        -0.033726
 O         1.442959        -0.054255         0.046749
 C        -0.754446        -1.190184         0.230302
 C        -0.020354        -2.576550         0.058535
 O        -1.656480        -0.781194        -0.917260
 H        -3.544109        -1.596742         0.558572
 H        -2.671571        -2.452709         1.813051
 H        -3.685777        -1.225485         2.261085
 H        -1.312103        -0.225313         2.123376
 H        -2.857418         0.788750        -0.269093
 H        -0.805725         1.714709        -0.937000
 H        -0.511511         1.778243         0.846900
 H         0.784605        -2.695161         0.744115
 H        -0.627541        -3.463856         0.325083
 H         0.255444        -2.649408        -0.971419
