19
Iteration:  1064
 C        -2.956989        -1.520172         1.666033
 C        -1.745268        -0.734989         1.118825
 C        -1.938672         0.259575         0.006596
 C        -0.746510         1.251948        -0.114572
 C         0.258674         0.041398         0.180657
 O         1.467520         0.102886         0.051990
 C        -0.617881        -1.197643         0.155125
 C        -0.284061        -2.642033         0.028819
 O        -1.491571        -0.769623        -0.962813
 H        -2.801761        -2.198446         2.488383
 H        -3.651281        -0.745764         2.049754
 H        -3.465566        -2.090950         0.866236
 H        -1.167170        -0.531608         2.003628
 H        -3.003269         0.652730        -0.240451
 H        -0.844703         1.779172        -1.016391
 H        -0.685835         2.150564         0.720842
 H         0.874770        -2.692130         0.114835
 H        -0.683151        -3.279859         0.815694
 H        -0.580566        -2.910442        -1.004037
