19
Iteration:  2312
 C        -2.757933        -1.667075         1.643609
 C        -1.680996        -0.663764         1.104797
 C        -2.047549         0.398250        -0.013835
 C        -0.710817         1.264400        -0.115549
 C         0.288161        -0.020434        -0.005350
 O         1.474692        -0.047225         0.208838
 C        -0.672360        -1.185969         0.091038
 C        -0.193747        -2.562159         0.139160
 O        -1.738345        -0.685786        -1.016962
 H        -2.628505        -2.796009         1.475722
 H        -2.937595        -1.435759         2.724486
 H        -3.802968        -1.439398         1.263381
 H        -1.342769        -0.201972         2.043759
 H        -2.991626         0.866103        -0.041316
 H        -0.605465         1.828745        -1.111151
 H        -0.558296         2.067412         0.573065
 H         0.126076        -2.767005         1.202537
 H        -1.062395        -3.230152        -0.005517
 H         0.554152        -2.959849        -0.601881
