19
Iteration:  2236
 C        -2.862006        -1.492305         1.677378
 C        -1.676242        -0.620645         1.231163
 C        -2.021326         0.317656         0.053859
 C        -0.693803         1.177665        -0.098480
 C         0.288150        -0.003705         0.006014
 O         1.482236        -0.008701         0.231355
 C        -0.725552        -1.185043         0.097706
 C        -0.114168        -2.563179        -0.079101
 O        -1.750023        -0.793022        -0.989969
 H        -2.843416        -1.988182         2.714490
 H        -3.810647        -0.903951         1.735604
 H        -2.976575        -2.356095         0.952339
 H        -1.229102        -0.120512         2.084527
 H        -3.017927         0.851989        -0.138989
 H        -0.655715         1.699562        -1.131711
 H        -0.427317         1.890518         0.643026
 H         0.775770        -2.979722         0.531930
 H        -0.856696        -3.424135        -0.017715
 H         0.211825        -2.447379        -1.168578
