19
Iteration:  4066charge 0 multiplicity 1
 C        -2.831962        -1.613162         1.501036
 C        -1.724208        -0.573705         1.188210
 C        -2.003114         0.409540        -0.011631
 C        -0.711794         1.155163        -0.033752
 C         0.239504         0.053022         0.037863
 O         1.464384        -0.024182        -0.011117
 C        -0.711412        -1.191554         0.217259
 C        -0.251256        -2.641925         0.128353
 O        -1.597365        -0.712272        -0.903788
 H        -3.059738        -2.297631         0.664366
 H        -2.408464        -2.324439         2.212731
 H        -3.694820        -1.094075         1.841822
 H        -1.193809        -0.012427         2.057269
 H        -3.053411         0.680242        -0.315728
 H        -0.570112         1.939291        -0.711011
 H        -0.441358         1.681897         0.903937
 H         0.290467        -2.899927         1.043138
 H        -1.138484        -3.194265        -0.077021
 H         0.555785        -2.898589        -0.587654
