19
Iteration:  1671charge 0 multiplicity 1
 C        -2.803316        -1.569194         1.604905
 C        -1.736623        -0.604039         1.180376
 C        -2.011251         0.344852        -0.064876
 C        -0.821945         1.258250        -0.116270
 C         0.286010        -0.064227         0.058982
 O         1.455837        -0.169618         0.102677
 C        -0.678437        -1.124948         0.147934
 C        -0.140501        -2.450864         0.087568
 O        -1.674495        -0.769971        -0.926828
 H        -2.473990        -2.631478         1.790361
 H        -3.160355        -1.183412         2.577758
 H        -3.555028        -1.433230         0.817724
 H        -1.226056        -0.267327         2.156052
 H        -3.043551         0.667009        -0.154821
 H        -0.569322         1.884628        -1.011269
 H        -0.750320         1.781064         0.814743
 H         0.807886        -2.399638         0.733568
 H        -0.846825        -3.341631         0.288481
 H         0.412857        -2.564725        -0.887502
