19
Iteration:    97charge 0 multiplicity 1
 C        -2.719482        -1.499153         1.716296
 C        -1.821486        -0.547951         1.051237
 C        -2.058739         0.306372        -0.166446
 C        -0.768991         1.163469        -0.010955
 C         0.250198        -0.024215        -0.012782
 O         1.454249        -0.041262         0.311209
 C        -0.732676        -1.204660         0.044304
 C        -0.106337        -2.446556         0.044261
 O        -1.625635        -0.885045        -0.987744
 H        -2.265499        -2.133518         2.511839
 H        -3.558567        -0.929880         2.159100
 H        -3.187099        -2.219685         1.013985
 H        -1.431313         0.046145         1.880227
 H        -3.012296         0.696281        -0.475054
 H        -0.547377         2.161042        -0.668647
 H        -0.659125         1.542218         0.984870
 H         0.724537        -2.414482         0.802848
 H        -0.723023        -3.309038         0.426094
 H         0.117753        -2.631949        -1.080416
