19
Iteration:  3226charge 0 multiplicity 1
 C        -2.956457        -1.643100         1.575369
 C        -1.788424        -0.615495         1.163448
 C        -2.081162         0.366812        -0.003067
 C        -0.712318         1.210688        -0.037218
 C         0.280484        -0.032885         0.043630
 O         1.547398        -0.013632         0.030225
 C        -0.719582        -1.158290         0.154791
 C        -0.160299        -2.594737         0.184102
 O        -1.547823        -0.699084        -0.982617
 H        -3.200462        -2.172447         0.674014
 H        -2.592570        -2.238180         2.415561
 H        -3.821270        -1.043956         1.828544
 H        -1.298520        -0.268770         2.112287
 H        -3.014696         0.847929        -0.533468
 H        -0.764725         1.836360        -0.929760
 H        -0.517443         2.030855         0.681768
 H         0.911226        -2.690572         0.495973
 H        -0.675205        -3.168226         1.007115
 H        -0.134253        -3.162479        -0.765245
