19
Iteration:  4973
 C        -2.940101        -1.613050         1.388829
 C        -1.799480        -0.622092         1.180036
 C        -1.999215         0.341960        -0.047483
 C        -0.609243         1.201988         0.013940
 C         0.305788         0.028217         0.178857
 O         1.516907        -0.023588        -0.142769
 C        -0.720311        -1.153814         0.201000
 C        -0.176881        -2.552402         0.234939
 O        -1.640910        -0.742068        -0.915080
 H        -3.646596        -1.745819         0.617911
 H        -2.602710        -2.648098         1.674622
 H        -3.404747        -1.440725         2.361384
 H        -1.474580        -0.244338         2.148588
 H        -2.928919         0.944253        -0.020019
 H        -0.456557         1.810815        -0.920572
 H        -0.711608         1.817321         1.023570
 H         0.742924        -2.589625         0.815450
 H        -0.883732        -3.149259         0.926228
 H        -0.142946        -3.109248        -0.789386
