19
Iteration:  1177charge 0 multiplicity 1
 C        -2.925200        -1.612355         1.588318
 C        -1.801249        -0.546183         1.195690
 C        -1.968416         0.319420        -0.050590
 C        -0.633253         1.196183         0.043321
 C         0.284798         0.038076         0.015208
 O         1.519736         0.028204        -0.019095
 C        -0.687492        -1.170038         0.102858
 C        -0.141815        -2.531449         0.144218
 O        -1.708755        -0.857216        -0.953382
 H        -2.462597        -2.594160         1.899897
 H        -3.472262        -1.234632         2.488627
 H        -3.580901        -1.852588         0.739600
 H        -1.297298        -0.136229         2.064222
 H        -2.892145         0.760860        -0.173891
 H        -0.438554         2.015855        -0.749670
 H        -0.895078         1.707750         1.073177
 H        -0.072063        -2.963114         1.121746
 H        -1.001615        -3.098400        -0.306823
 H         0.838908        -2.703286        -0.350435
