19
Iteration:  3085
 C        -2.823904        -1.526778         1.607073
 C        -1.709473        -0.578171         1.198247
 C        -1.979705         0.348715        -0.093608
 C        -0.688005         1.128511        -0.047497
 C         0.310705         0.030170         0.029012
 O         1.494889         0.061526         0.218974
 C        -0.760133        -1.207638         0.104296
 C        -0.235574        -2.584106         0.074391
 O        -1.669490        -0.885740        -0.956493
 H        -3.095240        -2.145000         0.726448
 H        -2.531070        -2.182395         2.456553
 H        -3.764987        -1.017229         1.920393
 H        -1.198358         0.033580         1.944970
 H        -2.876558         0.947504        -0.473662
 H        -0.511178         1.626712        -1.112791
 H        -0.893877         2.202623         0.480372
 H         0.085512        -2.968016         0.989994
 H        -1.126379        -3.129348        -0.226061
 H         0.570068        -2.554076        -0.638048
