19
Iteration:  4083charge 0 multiplicity 1
 C        -2.795231        -1.569048         1.498630
 C        -1.726415        -0.576490         1.227283
 C        -1.967350         0.276962        -0.007310
 C        -0.722362         1.292581         0.035506
 C         0.321599        -0.003315         0.012087
 O         1.519027         0.030242         0.002816
 C        -0.664445        -1.136702         0.151081
 C        -0.353648        -2.595792         0.108333
 O        -1.635390        -0.845969        -0.906629
 H        -2.984633        -2.307796         0.686125
 H        -2.577481        -2.397029         2.249983
 H        -3.794815        -1.053213         1.734610
 H        -1.427427        -0.058702         2.145422
 H        -2.861808         0.847318        -0.145288
 H        -0.671391         1.862187        -0.941441
 H        -0.817246         1.913823         0.946850
 H        -0.006287        -3.073353         1.039209
 H        -1.300242        -3.122948        -0.219073
 H         0.434164        -2.854049        -0.620044
