19
Iteration:   222charge 0 multiplicity 1
 C        -2.988587        -1.685599         1.735031
 C        -1.918603        -0.661323         1.120106
 C        -2.000942         0.286338        -0.182445
 C        -0.781213         1.244284        -0.019900
 C         0.255520         0.009001         0.164821
 O         1.426007        -0.097253        -0.093991
 C        -0.625301        -1.138947         0.218509
 C        -0.030805        -2.500134         0.184808
 O        -1.459459        -0.662365        -1.013973
 H        -2.433065        -2.348661         2.403464
 H        -3.763509        -1.169951         2.288752
 H        -3.480269        -2.316899         0.993549
 H        -1.645952        -0.030851         2.005049
 H        -2.858883         0.955443        -0.568879
 H        -0.528672         1.864955        -0.777374
 H        -0.842423         2.069533         0.774391
 H         0.591725        -2.627727         1.135414
 H        -0.862851        -3.206828         0.158002
 H         0.670349        -2.719789        -0.622889
