19
Iteration:  3746
 C        -2.924761        -1.518853         1.398170
 C        -1.740096        -0.603354         1.218717
 C        -1.984258         0.335177         0.023844
 C        -0.663598         1.158994        -0.002361
 C         0.266091        -0.062077         0.084413
 O         1.502302        -0.008812        -0.053115
 C        -0.744398        -1.185410         0.223318
 C        -0.123172        -2.528848         0.082465
 O        -1.701323        -0.766229        -0.843175
 H        -2.845864        -2.371008         0.747123
 H        -2.778949        -1.831953         2.435452
 H        -3.954878        -1.079523         1.306611
 H        -1.421544         0.003613         2.103213
 H        -2.972880         0.808743        -0.154778
 H        -0.654003         1.849363        -0.905765
 H        -0.592404         1.730076         0.948662
 H         0.855878        -2.586943         0.715978
 H        -0.569531        -3.490271         0.417489
 H         0.314629        -2.818671        -0.892272
