19
Iteration:  2096charge 0 multiplicity 1
 C        -2.870625        -1.550149         1.535687
 C        -1.705989        -0.696370         1.195952
 C        -1.998060         0.403141         0.024677
 C        -0.656425         1.207975         0.067894
 C         0.213449         0.007604         0.050186
 O         1.443272        -0.077567        -0.091779
 C        -0.756137        -1.231393         0.210143
 C        -0.062771        -2.521585        -0.001161
 O        -1.730145        -0.734251        -0.877600
 H        -3.771979        -1.013730         1.355649
 H        -2.837105        -2.404755         0.894655
 H        -2.734137        -1.863124         2.561825
 H        -1.287767        -0.304631         2.181161
 H        -3.116974         0.849060        -0.077528
 H        -0.235990         1.952040        -0.702880
 H        -0.557064         1.829073         0.975489
 H         0.755088        -2.588871         0.710830
 H        -0.707171        -3.304936         0.317830
 H         0.342961        -2.634068        -0.988302
