19
Iteration:   440charge 0 multiplicity 1
 C        -2.875702        -1.494822         1.400085
 C        -1.727466        -0.566608         1.307264
 C        -1.935495         0.247676        -0.030456
 C        -0.762123         1.173066        -0.216146
 C         0.277676         0.077649         0.077772
 O         1.478679         0.145115         0.124722
 C        -0.656761        -1.184059         0.235535
 C        -0.200894        -2.675098         0.058172
 O        -1.679549        -0.892019        -0.784307
 H        -2.664607        -2.337469         2.095727
 H        -3.807124        -1.116549         1.786342
 H        -3.140097        -2.007981         0.469578
 H        -1.361931        -0.040015         2.188898
 H        -2.852645         0.860294        -0.212344
 H        -0.548115         1.607083        -1.234590
 H        -0.552683         2.075202         0.435848
 H         0.740186        -2.934427         0.577753
 H        -0.981850        -3.402414         0.186331
 H         0.180359        -2.724509        -0.989521
