19
Iteration:   299charge 0 multiplicity 1
 C        -2.998760        -1.614071         1.440014
 C        -1.689266        -0.702787         1.313028
 C        -1.952565         0.297217         0.137143
 C        -0.714222         1.094682        -0.350899
 C         0.340853         0.050055        -0.003588
 O         1.542142         0.248756         0.180772
 C        -0.711975        -1.186012         0.141528
 C        -0.225607        -2.584198         0.109058
 O        -1.641328        -0.803993        -0.857432
 H        -2.826588        -2.526099         2.012163
 H        -3.783778        -1.045561         1.910809
 H        -3.266327        -1.814355         0.399229
 H        -1.316626        -0.397380         2.301359
 H        -3.069252         0.735620         0.054442
 H        -0.854308         1.383390        -1.325390
 H        -0.442394         2.064987         0.248131
 H         0.603776        -2.634567         0.887201
 H        -1.076821        -3.173967         0.440456
 H         0.273103        -2.998953        -0.805906
