19
Iteration:  1792charge 0 multiplicity 1
 C        -2.901722        -1.542394         1.725415
 C        -1.765756        -0.688634         1.176426
 C        -2.026689         0.403248        -0.015921
 C        -0.731234         1.188956        -0.040216
 C         0.251074         0.020255         0.035016
 O         1.486653        -0.018174         0.039230
 C        -0.659527        -1.212954         0.059168
 C        -0.101181        -2.599286         0.050408
 O        -1.689945        -0.720239        -0.935128
 H        -2.455965        -2.122126         2.597978
 H        -3.813908        -0.935650         1.944735
 H        -3.141646        -2.200792         0.849158
 H        -1.283794        -0.259663         2.104584
 H        -2.885032         0.967176        -0.337808
 H        -0.419366         1.546353        -1.087359
 H        -0.608128         1.906635         0.743997
 H         0.372950        -2.755327         1.087414
 H        -0.844717        -3.477633        -0.021740
 H         0.776208        -2.721932        -0.709435
