19
Iteration:   302
 C        -3.000152        -1.624461         1.458330
 C        -1.688339        -0.706161         1.309171
 C        -1.987509         0.292780         0.121125
 C        -0.677613         1.112131        -0.364613
 C         0.324629         0.043576         0.002246
 O         1.519553         0.248257         0.185178
 C        -0.698423        -1.174254         0.141595
 C        -0.201927        -2.588335         0.114565
 O        -1.636652        -0.803816        -0.856447
 H        -2.802925        -2.570324         2.017302
 H        -3.762140        -1.018837         1.993165
 H        -3.309135        -1.774381         0.395855
 H        -1.304736        -0.408839         2.346064
 H        -3.014277         0.829573         0.060234
 H        -0.776361         1.327235        -1.474818
 H        -0.444607         2.048821         0.350353
 H         0.589003        -2.779142         0.876552
 H        -1.131532        -3.122639         0.398456
 H         0.217203        -2.937880        -0.880176
