19
Iteration:  1708charge 0 multiplicity 1
 C        -2.787533        -1.583735         1.612930
 C        -1.691545        -0.646497         1.170705
 C        -1.987835         0.384278        -0.008743
 C        -0.705909         1.172973        -0.165994
 C         0.257638        -0.105999         0.055280
 O         1.440552         0.026457         0.138387
 C        -0.678464        -1.217558         0.042656
 C        -0.120954        -2.550655         0.117051
 O        -1.795663        -0.693318        -0.901402
 H        -2.441600        -2.398319         2.239139
 H        -3.496662        -0.963699         2.170166
 H        -3.383593        -2.100964         0.844220
 H        -1.300451        -0.089142         2.057863
 H        -2.944840         0.848484        -0.207549
 H        -0.468638         1.719072        -1.050203
 H        -0.444790         1.818177         0.692931
 H         0.155185        -2.794337         1.136434
 H        -0.884143        -3.237036        -0.189717
 H         0.689324        -2.604087        -0.648099
