19
Iteration:  3926
 C        -2.748169        -1.590432         1.644918
 C        -1.692523        -0.594247         1.106850
 C        -1.955639         0.300760        -0.016315
 C        -0.725663         1.192812        -0.072266
 C         0.268668         0.047174         0.148514
 O         1.448109        -0.035479         0.175367
 C        -0.753175        -1.151074         0.122022
 C        -0.288209        -2.630742         0.065706
 O        -1.689387        -0.726873        -1.032830
 H        -2.777497        -2.331648         0.827125
 H        -2.199749        -1.963865         2.512740
 H        -3.642539        -1.004681         1.673195
 H        -1.395870        -0.080552         1.914139
 H        -2.940603         0.724455        -0.207304
 H        -0.358102         1.756276        -1.009765
 H        -0.607223         1.943205         0.785991
 H         0.614357        -2.705165         0.729996
 H        -1.119910        -3.288624         0.139406
 H         0.246171        -2.782644        -0.912940
