19
Iteration:  4443
 C        -2.956405        -1.518156         1.516762
 C        -1.752361        -0.677839         1.196567
 C        -1.914208         0.359473         0.037851
 C        -0.715390         1.192755        -0.028381
 C         0.263291         0.038921         0.094106
 O         1.493945        -0.074031         0.071794
 C        -0.762173        -1.214997         0.136925
 C        -0.053362        -2.554116         0.099237
 O        -1.701647        -0.720744        -0.989202
 H        -3.497325        -1.698520         0.526745
 H        -2.651555        -2.461549         2.117786
 H        -3.671311        -0.856625         2.231732
 H        -1.202486        -0.353910         2.134623
 H        -2.931653         0.774796        -0.003029
 H        -0.777003         1.296238        -1.173947
 H        -0.484693         2.079329         0.640046
 H         0.826370        -2.360494         0.792873
 H        -0.762121        -3.335130         0.401626
 H         0.388985        -2.919860        -0.903481
