19
Iteration:  2262
 C        -2.846380        -1.436934         1.599903
 C        -1.596221        -0.617974         1.225134
 C        -1.973344         0.316642        -0.001497
 C        -0.800408         1.129393        -0.164796
 C         0.303990         0.046620         0.093156
 O         1.474801         0.104798         0.242272
 C        -0.630803        -1.181688         0.108711
 C        -0.285263        -2.677162        -0.170155
 O        -1.678744        -0.854983        -0.808306
 H        -2.521306        -2.309150         2.070093
 H        -3.555081        -0.929409         2.281175
 H        -3.363984        -1.833052         0.753553
 H        -1.239630        -0.189828         2.214182
 H        -2.951551         0.895396        -0.391283
 H        -0.684694         1.590732        -1.113454
 H        -0.685403         2.008313         0.574763
 H         0.246644        -3.252379         0.567983
 H        -1.156338        -3.263625        -0.363281
 H         0.347952        -2.698709        -1.085341
