19
Iteration:  2424charge 0 multiplicity 1
 C        -2.941500        -1.525300         1.473641
 C        -1.772070        -0.616705         1.201726
 C        -2.060848         0.294492        -0.014748
 C        -0.682873         1.256834         0.024173
 C         0.354414         0.054657         0.069749
 O         1.526796         0.066253        -0.062794
 C        -0.691583        -1.162076         0.161890
 C        -0.188272        -2.651467         0.152004
 O        -1.612043        -0.855404        -0.868043
 H        -2.990673        -2.151757         0.569586
 H        -2.793545        -2.249244         2.347798
 H        -3.924575        -0.987296         1.531440
 H        -1.286548        -0.095917         2.058900
 H        -3.080030         0.738590        -0.372420
 H        -0.629225         1.917983        -0.801136
 H        -0.637856         1.714398         1.028985
 H         0.588757        -2.787390         0.926524
 H        -0.958838        -3.423089         0.443874
 H         0.103725        -2.891946        -0.938532
