19
Iteration:  2595charge 0 multiplicity 1
 C        -2.746925        -1.623123         1.522114
 C        -1.766384        -0.508510         1.180103
 C        -2.046190         0.462615        -0.062525
 C        -0.677884         1.116676         0.009327
 C         0.278276        -0.055738         0.040307
 O         1.446804        -0.096425         0.146121
 C        -0.779608        -1.173759         0.081390
 C        -0.137107        -2.520368         0.172616
 O        -1.703471        -0.768980        -0.991509
 H        -2.713036        -2.466906         0.821751
 H        -2.616240        -2.140989         2.506351
 H        -3.814181        -1.307227         1.561752
 H        -1.289212         0.010131         2.089504
 H        -2.903232         0.991759        -0.468899
 H        -0.558394         1.882125        -0.910213
 H        -0.662249         1.803612         0.927662
 H         0.803471        -2.279867         0.743333
 H        -0.739211        -3.364429         0.503681
 H         0.330541        -2.697771        -0.845517
