19
Iteration:  2229charge 0 multiplicity 1
 C        -2.875756        -1.510828         1.676119
 C        -1.662019        -0.680063         1.194312
 C        -2.030826         0.396546         0.020122
 C        -0.697978         1.119591        -0.100765
 C         0.250411        -0.003626         0.017658
 O         1.495024        -0.035647         0.214053
 C        -0.716955        -1.234029         0.119699
 C        -0.095352        -2.552270        -0.043315
 O        -1.760908        -0.723255        -0.990945
 H        -2.672304        -1.770058         2.673324
 H        -3.865101        -1.052228         1.699936
 H        -2.934656        -2.431694         1.156294
 H        -1.185056        -0.131706         2.051078
 H        -2.989189         1.026871        -0.183426
 H        -0.761688         1.596553        -1.058518
 H        -0.485409         1.866909         0.718245
 H         0.810097        -2.567628         0.538533
 H        -0.725201        -3.380305         0.055377
 H         0.228897        -2.480822        -1.099687
