19
Iteration:   123charge 0 multiplicity 1
 C        -2.802815        -1.630385         1.642467
 C        -1.738562        -0.558229         1.193279
 C        -2.049382         0.277417        -0.101785
 C        -0.704302         1.228580        -0.208728
 C         0.220843         0.052978         0.142946
 O         1.455615        -0.011978         0.216982
 C        -0.684173        -1.183379         0.157891
 C        -0.075873        -2.555016         0.058056
 O        -1.702456        -0.771337        -0.971039
 H        -2.559095        -2.382397         2.380619
 H        -3.731422        -1.099750         1.873836
 H        -3.085988        -2.157971         0.724689
 H        -1.332374        -0.006050         2.054048
 H        -3.089064         0.658083        -0.230359
 H        -0.419379         1.524659        -1.116793
 H        -0.526583         2.151763         0.352859
 H         0.499858        -2.847246         0.922407
 H        -0.942631        -3.238007         0.110839
 H         0.373749        -2.691311        -0.886980
