19
Iteration:  1829
 C        -2.856880        -1.533535         1.565911
 C        -1.721022        -0.663832         1.244734
 C        -2.018590         0.406180         0.028206
 C        -0.693091         1.168854        -0.011456
 C         0.201473        -0.016670         0.053151
 O         1.401185        -0.123633        -0.014849
 C        -0.749997        -1.138794         0.054582
 C        -0.041809        -2.475112         0.163515
 O        -1.644081        -0.793152        -0.933623
 H        -2.533573        -2.561426         1.663802
 H        -3.457375        -1.407851         2.465689
 H        -3.494210        -1.604171         0.672491
 H        -1.293690        -0.033213         2.064676
 H        -2.884191         0.924450        -0.369389
 H        -0.583601         1.677859        -0.906709
 H        -0.605397         1.988945         0.733568
 H         0.904704        -2.320316         0.687422
 H        -0.666390        -3.236792         0.555365
 H         0.282177        -2.768944        -0.851931
