19
Iteration:  1848
 C        -2.904412        -1.584033         1.458872
 C        -1.768149        -0.581110         1.201608
 C        -1.952308         0.337244         0.000659
 C        -0.705676         1.238675        -0.083849
 C         0.282666         0.009323         0.052403
 O         1.499580         0.032888        -0.042882
 C        -0.649730        -1.183456         0.299198
 C        -0.145502        -2.631001         0.127938
 O        -1.750394        -0.790882        -0.876528
 H        -2.476210        -2.594327         1.337670
 H        -3.213152        -1.333374         2.519509
 H        -3.739779        -1.554659         0.693514
 H        -1.368159        -0.179935         2.175526
 H        -2.895628         0.745077         0.011761
 H        -0.419596         1.716688        -1.016613
 H        -0.631778         1.825896         0.817620
 H         0.884372        -2.474362         0.573267
 H        -0.684366        -3.459876         0.679796
 H        -0.100159        -2.867604        -1.040135
