19
Iteration:   271charge 0 multiplicity 1
 C        -2.889142        -1.575962         1.387323
 C        -1.674762        -0.654361         1.204598
 C        -2.006051         0.360941         0.006150
 C        -0.734003         1.180501        -0.133425
 C         0.259918         0.078920         0.065894
 O         1.469477         0.113147         0.063777
 C        -0.650517        -1.184766         0.189922
 C        -0.086582        -2.657728         0.227084
 O        -1.731000        -0.826313        -0.891973
 H        -2.889710        -2.211891         2.299820
 H        -3.788792        -0.907445         1.462289
 H        -3.063088        -2.215269         0.492494
 H        -1.297786        -0.273655         2.195813
 H        -3.020330         0.635852        -0.013299
 H        -0.493445         1.942314        -1.007552
 H        -0.622153         2.002617         0.607560
 H         0.725923        -2.852213         0.910764
 H        -1.024114        -3.231673         0.382688
 H         0.260589        -3.084406        -0.724286
