19
Iteration:  3798charge 0 multiplicity 1
 C        -2.880495        -1.677802         1.594219
 C        -1.783789        -0.589864         1.174021
 C        -2.016360         0.375957         0.000594
 C        -0.688532         1.171484        -0.003655
 C         0.297316        -0.017744         0.095709
 O         1.474899         0.001821         0.005650
 C        -0.695676        -1.104549         0.155548
 C        -0.221994        -2.625236         0.141639
 O        -1.590237        -0.690479        -1.020124
 H        -3.177181        -2.226309         0.655232
 H        -2.602453        -2.355158         2.475014
 H        -3.647344        -1.009477         2.096496
 H        -1.195199        -0.175709         2.043141
 H        -2.892142         0.885500        -0.350620
 H        -0.721200         1.631441        -1.005801
 H        -0.578985         1.906692         0.744913
 H         0.615943        -2.814477         0.895998
 H        -0.924725        -3.412343         0.421067
 H         0.073128        -2.832651        -0.920982
