19
Iteration:  3607
 C        -2.854513        -1.546958         1.610483
 C        -1.713013        -0.634063         1.230269
 C        -1.955229         0.339112         0.044265
 C        -0.655456         1.193153        -0.271812
 C         0.309078         0.008299         0.016833
 O         1.466270         0.026107         0.250827
 C        -0.735429        -1.208981         0.098519
 C        -0.189339        -2.606572         0.022326
 O        -1.712850        -0.762080        -0.937422
 H        -3.052368        -2.230439         0.784882
 H        -2.432734        -2.129872         2.461530
 H        -3.850825        -1.203636         1.943206
 H        -1.439603        -0.071992         2.151527
 H        -3.002721         0.792245         0.059381
 H        -0.567188         1.692968        -1.239097
 H        -0.551791         2.003678         0.615861
 H         0.226442        -2.873713         0.960211
 H        -1.093451        -3.202623        -0.219375
 H         0.466218        -2.568017        -0.816077
