19
Iteration:  2100charge 0 multiplicity 1
 C        -2.889696        -1.540962         1.500834
 C        -1.673223        -0.681813         1.200743
 C        -1.992522         0.388513         0.051257
 C        -0.668327         1.217284         0.054026
 C         0.216571         0.035683         0.078875
 O         1.454708        -0.067985        -0.102483
 C        -0.718033        -1.235065         0.211445
 C        -0.084286        -2.546804         0.030361
 O        -1.743249        -0.738633        -0.897376
 H        -3.860249        -0.982055         1.483112
 H        -2.943090        -2.465997         0.844673
 H        -2.829535        -1.834975         2.564343
 H        -1.231540        -0.376044         2.133624
 H        -2.964807         0.705726        -0.000241
 H        -0.409120         1.907883        -0.713862
 H        -0.508697         1.800560         1.001543
 H         0.809824        -2.504573         0.657064
 H        -0.737393        -3.398123         0.268345
 H         0.228718        -2.628759        -1.052290
