19
Iteration:   737
 C        -2.935942        -1.641065         1.519842
 C        -1.748416        -0.665692         1.237143
 C        -1.969805         0.312268        -0.081591
 C        -0.673795         1.169994        -0.188274
 C         0.272982         0.056354         0.064483
 O         1.495260        -0.035742         0.148299
 C        -0.732391        -1.096787         0.158648
 C        -0.105999        -2.430387         0.082102
 O        -1.686817        -0.823086        -0.871355
 H        -2.620140        -2.275534         2.414007
 H        -3.812127        -1.041120         1.895238
 H        -3.087521        -2.380315         0.701371
 H        -1.470211        -0.083329         2.172219
 H        -2.960443         0.873769        -0.278985
 H        -0.546978         1.694281        -1.062796
 H        -0.529164         1.755874         0.797848
 H         0.887710        -2.455851         0.539107
 H        -0.793850        -3.138778         0.582898
 H        -0.053488        -2.705083        -0.974282
