19
Iteration:  2663charge 0 multiplicity 1
 C        -3.081699        -1.502849         1.424775
 C        -1.721091        -0.642905         1.226860
 C        -1.898253         0.292225        -0.033485
 C        -0.759884         1.113876        -0.019898
 C         0.302345         0.051864         0.070978
 O         1.511795         0.170732        -0.005934
 C        -0.652349        -1.179753         0.284403
 C        -0.204954        -2.614245         0.107975
 O        -1.565924        -0.883543        -0.877723
 H        -3.812671        -1.376043         0.559323
 H        -2.823394        -2.617599         1.574852
 H        -3.444209        -1.047132         2.379330
 H        -1.485681        -0.133486         2.266416
 H        -2.774891         0.942973        -0.344758
 H        -0.620750         1.534310        -1.163215
 H        -0.423321         1.901638         0.825439
 H         0.794652        -2.807694         0.476301
 H        -0.946925        -3.406524         0.538977
 H        -0.170505        -2.842305        -0.985225
