19
Iteration:  4022charge 0 multiplicity 1
 C        -3.021745        -1.612561         1.552722
 C        -1.811655        -0.692868         1.189246
 C        -2.040403         0.363987         0.030321
 C        -0.666817         1.253820        -0.082551
 C         0.306420        -0.042485         0.035460
 O         1.500214        -0.096221         0.003960
 C        -0.645204        -1.183419         0.138582
 C        -0.047727        -2.495802         0.138269
 O        -1.674820        -0.720685        -0.907603
 H        -3.645536        -1.610922         0.638653
 H        -2.747300        -2.570784         1.989783
 H        -3.491612        -0.918496         2.230511
 H        -1.382475        -0.268403         2.232931
 H        -3.090972         0.829887        -0.048557
 H        -0.473409         1.875887        -0.942774
 H        -0.518687         1.910342         0.811500
 H         0.812041        -2.431040         0.841138
 H        -0.800005        -3.264061         0.242701
 H         0.485032        -2.615375        -0.841463
