19
Iteration:  2465
 C        -2.836738        -1.694402         1.579095
 C        -1.790451        -0.629773         1.203502
 C        -2.030396         0.413343        -0.067348
 C        -0.687468         1.291019        -0.145722
 C         0.265668         0.090277         0.085952
 O         1.410035        -0.148207         0.062828
 C        -0.828364        -1.208904         0.109970
 C        -0.120247        -2.541015         0.248669
 O        -1.568582        -0.662146        -0.969469
 H        -3.604098        -1.922927         0.797741
 H        -2.128551        -2.624483         1.651413
 H        -3.305240        -1.580661         2.598925
 H        -1.414535        -0.433703         2.307478
 H        -3.039994         0.752401        -0.307615
 H        -0.232394         1.607526        -1.181312
 H        -0.488235         2.128511         0.522749
 H         0.615594        -2.583572         1.084079
 H        -0.822975        -3.348796         0.285076
 H         0.514509        -2.708859        -0.700330
