19
Iteration:  3825
 C        -2.879658        -1.539468         1.501362
 C        -1.705463        -0.561539         1.204838
 C        -1.948491         0.311941        -0.000766
 C        -0.692637         1.195693        -0.080072
 C         0.269433         0.029994         0.081368
 O         1.517891         0.081533         0.093883
 C        -0.718768        -1.147530         0.152901
 C        -0.257040        -2.672401         0.021316
 O        -1.664135        -0.863567        -0.868902
 H        -3.533441        -1.654607         0.670375
 H        -2.555771        -2.481360         1.869598
 H        -3.305633        -0.981839         2.287776
 H        -1.211951        -0.252139         2.091784
 H        -2.908247         0.807072        -0.312540
 H        -0.697661         1.861866        -0.932860
 H        -0.728050         1.821820         0.885376
 H         0.419293        -2.817193         0.828183
 H        -1.012050        -3.505652         0.077715
 H         0.295860        -2.724489        -0.909628
