19
Iteration:  1077
 C        -2.952668        -1.474878         1.556086
 C        -1.648743        -0.666899         1.252032
 C        -2.001327         0.334955        -0.026512
 C        -0.824530         1.200160        -0.056639
 C         0.299313         0.017964         0.083916
 O         1.509273         0.178246         0.050864
 C        -0.697508        -1.267386         0.186553
 C        -0.229493        -2.730280         0.001658
 O        -1.528542        -0.784520        -0.919646
 H        -2.731855        -2.096894         2.429499
 H        -3.808932        -0.788922         1.751114
 H        -3.249706        -2.139012         0.722356
 H        -1.297276        -0.068573         2.081810
 H        -3.012639         0.647673        -0.167652
 H        -0.489949         1.724121        -0.927292
 H        -0.705901         1.824870         0.935841
 H         0.840733        -2.962275         0.089214
 H        -0.814544        -3.325487         0.734017
 H        -0.525424        -3.112335        -0.988787
