19
Iteration:  4344charge 0 multiplicity 1
 C        -2.914086        -1.532968         1.500005
 C        -1.733435        -0.691028         1.201769
 C        -2.047531         0.361517         0.026054
 C        -0.717811         1.226790         0.005515
 C         0.350240        -0.006637         0.044316
 O         1.525775         0.053141        -0.011556
 C        -0.633338        -1.175780         0.140799
 C        -0.251709        -2.603270         0.114719
 O        -1.653472        -0.816797        -0.896436
 H        -3.370288        -1.809905         0.505830
 H        -2.571570        -2.455411         2.102636
 H        -3.627397        -0.902574         2.199118
 H        -1.284932        -0.205354         2.076967
 H        -2.965391         0.872885        -0.345921
 H        -0.550809         1.696136        -1.048875
 H        -0.542314         1.904974         0.912088
 H        -0.089534        -2.815053         1.209826
 H        -1.099699        -3.192540        -0.376427
 H         0.749126        -2.857821        -0.382719
