19
Iteration:  3980charge 0 multiplicity 1
 C        -2.921496        -1.497544         1.465220
 C        -1.677560        -0.652655         1.216168
 C        -1.969108         0.333086         0.016562
 C        -0.737694         1.187176        -0.038235
 C         0.285563        -0.004792         0.128704
 O         1.522987         0.081360         0.057038
 C        -0.699040        -1.168503         0.184975
 C        -0.166161        -2.604684         0.015416
 O        -1.693579        -0.832039        -0.881071
 H        -3.503286        -1.724448         0.525969
 H        -2.723006        -2.399757         2.148697
 H        -3.628127        -0.917737         2.091586
 H        -1.331702        -0.269119         2.249961
 H        -2.939743         0.698426        -0.458264
 H        -0.527818         1.463845        -1.164102
 H        -0.509266         2.028576         0.726215
 H         0.765680        -2.892417         0.614529
 H        -0.947211        -3.279462         0.401926
 H        -0.068308        -2.838926        -1.088020
