19
Iteration:  2365charge 0 multiplicity 1
 C        -3.046219        -1.584897         1.559398
 C        -1.815129        -0.626653         1.218996
 C        -1.964349         0.277896         0.005564
 C        -0.635179         1.226497        -0.073249
 C         0.305912         0.069640         0.056969
 O         1.533236        -0.012768        -0.022858
 C        -0.735256        -1.167633         0.213648
 C        -0.076929        -2.577482         0.100312
 O        -1.659517        -0.766972        -0.909981
 H        -2.801989        -2.660007         1.205165
 H        -3.096292        -1.661906         2.664442
 H        -4.069275        -1.251973         1.174369
 H        -1.482737        -0.373860         2.292408
 H        -2.767536         0.860972        -0.225700
 H        -0.632790         1.870188        -1.044010
 H        -0.728264         1.988460         0.689733
 H         0.804218        -2.801514         0.729646
 H        -0.791043        -3.398531         0.041078
 H         0.422571        -2.542855        -0.857664
