19
Iteration:  3321
 C        -2.828097        -1.546448         1.504107
 C        -1.649739        -0.602095         1.228859
 C        -1.979667         0.366991         0.025379
 C        -0.684502         1.123109        -0.242220
 C         0.267093         0.076005         0.060173
 O         1.527403         0.109326         0.246943
 C        -0.765884        -1.253199         0.100835
 C        -0.202794        -2.649310         0.064730
 O        -1.726851        -0.796473        -0.895034
 H        -3.536432        -1.632738         0.631377
 H        -2.428647        -2.517764         1.862832
 H        -3.560906        -1.174089         2.303141
 H        -1.427777        -0.047771         2.153871
 H        -2.944199         0.892190        -0.139696
 H        -0.769461         1.538959        -1.237186
 H        -0.321958         1.970741         0.338722
 H         0.007849        -3.082465         1.102373
 H        -1.108665        -3.250496        -0.172364
 H         0.636099        -2.918156        -0.644725
