19
Iteration:  3698charge 0 multiplicity 1
 C        -2.973720        -1.525860         1.547432
 C        -1.748000        -0.694507         1.221958
 C        -1.989771         0.349439         0.052897
 C        -0.793907         1.173456        -0.085721
 C         0.319794        -0.014197         0.033381
 O         1.544607         0.050038         0.025824
 C        -0.740679        -1.191247         0.182337
 C        -0.171544        -2.583617         0.116967
 O        -1.565395        -0.736631        -0.919869
 H        -3.479400        -1.656832         0.531434
 H        -2.782944        -2.471972         2.149329
 H        -3.661878        -0.824309         2.074795
 H        -1.326760        -0.278098         2.093583
 H        -2.980046         0.756548        -0.103355
 H        -0.490202         1.279046        -1.106164
 H        -0.617326         2.008763         0.559505
 H         0.647671        -2.956420         0.823589
 H        -0.887329        -3.434843         0.115903
 H         0.317707        -2.633376        -0.937339
