19
Iteration:  4904charge 0 multiplicity 1
 C        -2.989337        -1.518826         1.455656
 C        -1.862245        -0.613250         1.241437
 C        -1.928019         0.317858         0.030659
 C        -0.676423         1.181715        -0.060949
 C         0.330994         0.045850         0.104922
 O         1.540717        -0.037945        -0.013978
 C        -0.692622        -1.175684         0.228904
 C        -0.124708        -2.530689        -0.024567
 O        -1.655994        -0.830891        -0.819085
 H        -3.170436        -2.272669         0.696612
 H        -2.861176        -1.940849         2.396517
 H        -3.910883        -1.029409         1.650450
 H        -1.538118        -0.198320         2.168403
 H        -2.907609         0.761864        -0.287633
 H        -0.348232         1.819535        -0.958469
 H        -0.804482         1.985562         0.783879
 H         0.718158        -2.751970         0.730631
 H        -0.956082        -3.366218         0.230021
 H         0.165650        -2.632052        -1.066682
