19
Iteration:  4905
 C        -2.986634        -1.521507         1.455104
 C        -1.866310        -0.613414         1.239931
 C        -1.922033         0.313225         0.029177
 C        -0.678473         1.184183        -0.052101
 C         0.334849         0.043005         0.105362
 O         1.534403        -0.039201        -0.018309
 C        -0.695614        -1.170485         0.234149
 C        -0.123120        -2.534341        -0.016363
 O        -1.657569        -0.830884        -0.826694
 H        -3.177810        -2.259753         0.701933
 H        -2.872951        -1.953306         2.387987
 H        -3.883816        -0.995673         1.646248
 H        -1.518771        -0.207024         2.148056
 H        -2.908130         0.785247        -0.268458
 H        -0.340735         1.831648        -0.925617
 H        -0.816173         2.034882         0.752725
 H         0.742649        -2.735637         0.687439
 H        -0.959319        -3.369077         0.230312
 H         0.187191        -2.660845        -1.056118
