19
Iteration:  1652charge 0 multiplicity 1
 C        -2.925327        -1.570776         1.620820
 C        -1.789905        -0.624978         1.209667
 C        -1.993041         0.340833         0.018256
 C        -0.688794         1.204982        -0.089081
 C         0.297569         0.029129         0.088999
 O         1.466205         0.016784         0.041860
 C        -0.713881        -1.232349         0.152407
 C        -0.114318        -2.588105         0.075586
 O        -1.630559        -0.751006        -0.947700
 H        -2.415540        -2.540394         1.802501
 H        -3.296800        -1.314170         2.626342
 H        -3.721192        -1.569528         0.829529
 H        -1.358015         0.047722         2.035134
 H        -2.888357         0.800663        -0.296796
 H        -0.712511         1.425561        -1.179918
 H        -0.479455         2.021905         0.589600
 H         0.881731        -2.714631         0.549125
 H        -0.900409        -3.329916         0.389441
 H        -0.118358        -2.822065        -1.044655
