19
Iteration:  4067charge 0 multiplicity 1
 C        -2.830188        -1.611165         1.497068
 C        -1.729367        -0.573385         1.189035
 C        -1.991448         0.407242        -0.013833
 C        -0.720677         1.149369        -0.028986
 C         0.227988         0.063283         0.033633
 O         1.471988        -0.024938        -0.009331
 C        -0.698847        -1.194368         0.214477
 C        -0.259604        -2.641824         0.126372
 O        -1.600761        -0.718072        -0.899952
 H        -3.046901        -2.267254         0.632559
 H        -2.379899        -2.284539         2.257421
 H        -3.695441        -1.107176         1.836068
 H        -1.169824        -0.021150         2.100997
 H        -3.026632         0.659194        -0.333510
 H        -0.577440         1.980114        -0.724085
 H        -0.445950         1.683456         0.913354
 H         0.271253        -2.910541         1.067888
 H        -1.159182        -3.179118        -0.092367
 H         0.543408        -2.889971        -0.601677
