19
Iteration:  1456
 C        -2.796071        -1.575255         1.607025
 C        -1.723611        -0.614303         1.201524
 C        -2.046321         0.328866         0.104081
 C        -0.725852         1.221670        -0.091659
 C         0.240215         0.036649         0.053575
 O         1.515119         0.074049         0.044495
 C        -0.691551        -1.191787         0.158572
 C        -0.301099        -2.659364         0.064985
 O        -1.571070        -0.788431        -0.961654
 H        -2.471263        -2.569791         2.028442
 H        -3.515029        -1.004591         2.194241
 H        -3.281013        -1.849958         0.660504
 H        -1.259000        -0.117594         2.022802
 H        -2.883321         0.839940        -0.313078
 H        -0.691698         1.448038        -1.208410
 H        -0.658864         2.016695         0.669584
 H         0.092972        -2.985126         0.975626
 H        -1.214752        -3.203061        -0.206114
 H         0.541668        -2.738263        -0.599232
