19
Iteration:  1152charge 0 multiplicity 1
 C        -2.821653        -1.640521         1.533350
 C        -1.812446        -0.624146         1.217333
 C        -2.058195         0.420515         0.022939
 C        -0.704366         1.197358        -0.065670
 C         0.210301         0.009232         0.066317
 O         1.430752        -0.160127        -0.013779
 C        -0.751206        -1.185087         0.148076
 C        -0.060889        -2.502971         0.183482
 O        -1.580355        -0.659466        -0.971997
 H        -2.407585        -2.525737         1.997454
 H        -3.472510        -1.125931         2.256959
 H        -3.392397        -1.963086         0.662455
 H        -1.224498        -0.378638         2.093104
 H        -3.061367         0.946233        -0.171977
 H        -0.674415         1.611991        -1.010622
 H        -0.678512         2.014489         0.753522
 H         0.503948        -2.705563         1.131184
 H        -0.777696        -3.362441         0.067516
 H         0.785110        -2.529096        -0.558072
