19
Iteration:  3522charge 0 multiplicity 1
 C        -2.911295        -1.584441         1.603693
 C        -1.769766        -0.623388         1.115363
 C        -1.919113         0.379592        -0.096607
 C        -0.689391         1.232501         0.030216
 C         0.251864         0.045560         0.092865
 O         1.490840        -0.069435         0.045805
 C        -0.731613        -1.196423         0.151766
 C        -0.145208        -2.539097         0.170185
 O        -1.677802        -0.780790        -0.986546
 H        -3.466584        -2.038979         0.742785
 H        -2.428257        -2.533351         1.989869
 H        -3.518550        -1.099713         2.387658
 H        -1.527747        -0.069677         2.036023
 H        -2.802728         0.995475        -0.422373
 H        -0.557411         1.678966        -0.915278
 H        -0.591551         1.975398         0.777895
 H         0.953817        -2.516865         0.398727
 H        -0.667945        -3.369457         0.811430
 H        -0.200085        -3.029061        -0.843127
