19
Iteration:   479
 C        -3.063413        -1.600786         1.622357
 C        -1.773738        -0.696539         1.103965
 C        -1.915989         0.275660        -0.083811
 C        -0.709737         1.289806        -0.006698
 C         0.278935         0.132179         0.056108
 O         1.441601        -0.058046        -0.019548
 C        -0.732939        -1.241173         0.107287
 C        -0.015542        -2.549176         0.291867
 O        -1.592597        -0.706893        -1.022187
 H        -2.571762        -2.529423         2.067074
 H        -3.651690        -1.100614         2.477853
 H        -3.724788        -2.010985         0.800520
 H        -1.274396        -0.294740         2.017225
 H        -2.939852         0.604230        -0.237072
 H        -0.662499         1.931501        -0.949959
 H        -0.781162         1.910209         0.816062
 H         0.760968        -2.279108         1.031334
 H        -0.672237        -3.269030         0.833685
 H         0.352779        -3.079853        -0.571171
