19
Iteration:  3969charge 0 multiplicity 1
 C        -2.972589        -1.553615         1.549888
 C        -1.759351        -0.686779         1.227184
 C        -1.972947         0.288216        -0.019281
 C        -0.677260         1.167260        -0.070412
 C         0.357848         0.099824         0.013523
 O         1.540958         0.090979         0.104861
 C        -0.686933        -1.225574         0.193300
 C        -0.250398        -2.619627         0.050804
 O        -1.651169        -0.775716        -0.906557
 H        -3.342808        -2.064857         0.614918
 H        -2.596201        -2.401345         2.198172
 H        -3.701184        -0.885367         2.033578
 H        -1.194959        -0.250367         2.110709
 H        -2.868739         0.962563        -0.064478
 H        -0.808286         1.699654        -1.098982
 H        -0.601512         2.108036         0.604283
 H         0.770468        -2.797773         0.512486
 H        -1.038820        -3.321026         0.367633
 H        -0.081952        -2.768978        -1.062430
