19
Iteration:  3184
 C        -2.854427        -1.565231         1.332421
 C        -1.778258        -0.628798         1.292858
 C        -1.993964         0.400720         0.006085
 C        -0.712325         1.147986        -0.099678
 C         0.317600         0.029776         0.039694
 O         1.512736         0.086343         0.011465
 C        -0.710517        -1.140476         0.181687
 C        -0.226505        -2.625735         0.209036
 O        -1.647234        -0.873515        -0.817351
 H        -3.311734        -1.607055         0.367407
 H        -2.585442        -2.567841         1.716676
 H        -3.677378        -1.164800         1.883408
 H        -1.496163        -0.092575         2.195074
 H        -3.005460         0.842961        -0.227116
 H        -0.271409         1.724509        -1.019175
 H        -0.358677         1.949362         0.683214
 H         0.794480        -2.657254         0.345294
 H        -0.772564        -3.292380         0.889495
 H        -0.432673        -2.998391        -0.755593
