19
Iteration:  3409
 C        -2.965241        -1.513145         1.610943
 C        -1.750431        -0.622149         1.253941
 C        -1.923120         0.317155        -0.064663
 C        -0.721855         1.271497        -0.017040
 C         0.252237         0.024493         0.078957
 O         1.470381        -0.050520         0.084505
 C        -0.738748        -1.131259         0.129358
 C        -0.091929        -2.573640         0.039446
 O        -1.635411        -0.859231        -1.001999
 H        -3.238014        -2.406766         1.009469
 H        -2.655154        -1.870738         2.634424
 H        -3.851663        -0.801653         1.782295
 H        -1.252724        -0.098578         2.052290
 H        -2.987296         0.611182        -0.296359
 H        -0.544346         1.586572        -1.024976
 H        -0.494433         1.888657         0.867317
 H         0.673450        -2.773386         0.831834
 H        -0.928409        -3.300790         0.123609
 H         0.416135        -2.595773        -0.949917
