19
Iteration:  3440
 C        -2.981665        -1.478427         1.415375
 C        -1.738043        -0.608153         1.287297
 C        -2.013712         0.348878         0.059058
 C        -0.750885         1.160502        -0.060989
 C         0.324822        -0.053416         0.037276
 O         1.499363         0.059732         0.014320
 C        -0.704949        -1.177109         0.231265
 C        -0.089285        -2.606565         0.078852
 O        -1.640958        -0.819382        -0.886589
 H        -3.369567        -2.005097         0.538041
 H        -3.009054        -2.056920         2.353094
 H        -3.894083        -0.839489         1.584433
 H        -1.297377        -0.168803         2.225549
 H        -3.070625         0.573359        -0.081674
 H        -0.477723         1.623274        -1.104851
 H        -0.182115         1.927993         0.672142
 H         0.927435        -2.803739         0.433307
 H        -0.649812        -3.380737         0.485237
 H        -0.037176        -2.782525        -0.998027
