19
Iteration:  1292
 C        -2.772805        -1.642131         1.607345
 C        -1.731402        -0.588206         1.170930
 C        -1.988028         0.361330         0.041429
 C        -0.750903         1.224375        -0.051713
 C         0.236040         0.015555         0.062082
 O         1.438146        -0.168462         0.090783
 C        -0.764812        -1.112443         0.123704
 C        -0.113489        -2.500526         0.103054
 O        -1.663585        -0.728465        -1.048177
 H        -2.355054        -2.471126         2.201465
 H        -3.599400        -1.137198         2.140954
 H        -3.263516        -2.127030         0.738759
 H        -1.091999        -0.156255         1.985066
 H        -2.933670         1.038515        -0.088002
 H        -0.878424         1.690227        -1.055043
 H        -0.630870         1.879113         0.800578
 H         0.378705        -2.544297         1.094627
 H        -0.873019        -3.299532         0.120171
 H         0.703931        -2.658535        -0.583764
