19
Iteration:  3714
 C        -3.047698        -1.488842         1.448155
 C        -1.742139        -0.703313         1.274825
 C        -1.972773         0.289796         0.087065
 C        -0.684109         1.194582        -0.146555
 C         0.271531         0.044671         0.093186
 O         1.531992         0.016221        -0.017492
 C        -0.632221        -1.197203         0.229276
 C        -0.156890        -2.578049         0.023594
 O        -1.613787        -0.771794        -0.850792
 H        -3.383184        -2.107436         0.651825
 H        -2.851099        -2.193047         2.241378
 H        -3.879681        -0.859144         1.805979
 H        -1.351951        -0.148046         2.252668
 H        -2.991191         0.706253        -0.101699
 H        -0.945412         1.758484        -1.099560
 H        -0.587275         2.031631         0.615189
 H         0.721207        -2.704927         0.792339
 H        -0.950802        -3.320308         0.279902
 H         0.336147        -2.854056        -0.934214
