19
Iteration:  2758
 C        -2.715664        -1.599200         1.473338
 C        -1.735264        -0.504026         1.175505
 C        -2.029865         0.324707        -0.056729
 C        -0.690144         1.179115        -0.161351
 C         0.230290         0.031037         0.070968
 O         1.476572        -0.099034         0.221788
 C        -0.703389        -1.103643         0.205031
 C        -0.249844        -2.559927         0.060616
 O        -1.716028        -0.790726        -0.915383
 H        -2.661448        -2.308723         0.668869
 H        -2.450739        -2.021847         2.447044
 H        -3.617563        -1.012393         1.623416
 H        -1.172755        -0.112766         2.032633
 H        -3.076429         0.722811        -0.194808
 H        -0.599110         1.782777        -1.113592
 H        -0.528684         1.793101         0.678596
 H         0.068987        -2.874326         1.122265
 H        -1.029063        -3.241914        -0.356512
 H         0.847041        -2.747035        -0.291306
