19
Iteration:  3161
 C        -2.986558        -1.530437         1.451619
 C        -1.821152        -0.603514         1.226809
 C        -1.937340         0.343828        -0.053193
 C        -0.725985         1.184361        -0.081476
 C         0.326447        -0.010472         0.048857
 O         1.509726         0.019477         0.037424
 C        -0.632157        -1.194169         0.247311
 C        -0.093287        -2.592310         0.154131
 O        -1.685974        -0.802550        -0.872794
 H        -3.574485        -1.745421         0.581403
 H        -2.670904        -2.440207         1.944759
 H        -3.784484        -1.092177         2.042470
 H        -1.210868        -0.305969         2.063417
 H        -2.959685         0.782137        -0.404482
 H        -0.844183         1.811544        -1.036031
 H        -0.454668         1.980325         0.746556
 H         0.935889        -2.538738         0.385793
 H        -0.700120        -3.286803         0.726549
 H        -0.243747        -2.843548        -0.884534
