19
Iteration:  3666
 C        -2.801359        -1.560805         1.608553
 C        -1.765360        -0.603419         1.141709
 C        -1.973101         0.352434        -0.120464
 C        -0.732413         1.223881        -0.010989
 C         0.308209         0.002843        -0.015091
 O         1.461015        -0.019938         0.139597
 C        -0.727565        -1.174568         0.075674
 C        -0.228307        -2.562139         0.161757
 O        -1.662072        -0.783184        -0.928851
 H        -3.645810        -1.835705         0.867857
 H        -2.367259        -2.612518         1.800720
 H        -3.217288        -1.176616         2.577820
 H        -1.332252        -0.026154         1.923712
 H        -2.943938         0.767873        -0.329267
 H        -0.238189         1.822554        -0.828347
 H        -0.760948         1.826423         0.898746
 H         0.414052        -2.938327         1.095901
 H        -1.022708        -3.321815        -0.081238
 H         0.595043        -2.830803        -0.669930
