19
Iteration:  3176charge 0 multiplicity 1
 C        -2.949631        -1.552123         1.350007
 C        -1.745647        -0.543718         1.260271
 C        -1.983823         0.311784         0.034894
 C        -0.671495         1.168009        -0.108014
 C         0.314041         0.045370        -0.009297
 O         1.539200         0.071890         0.032515
 C        -0.715338        -1.181651         0.260759
 C        -0.192405        -2.627175         0.167806
 O        -1.685205        -0.854424        -0.855141
 H        -3.274734        -1.719623         0.292968
 H        -2.492827        -2.527641         1.712184
 H        -3.696032        -1.187389         2.085923
 H        -1.721870         0.111563         2.151176
 H        -2.877119         0.805984        -0.029477
 H        -0.428210         1.835433        -1.040071
 H        -0.645751         1.815820         0.855494
 H         0.891813        -2.762173         0.343674
 H        -0.603028        -3.336373         0.892609
 H        -0.254587        -2.999553        -0.852417
