19
Iteration:  2522
 C        -2.902542        -1.439002         1.608608
 C        -1.694655        -0.615891         1.155181
 C        -1.941977         0.385419         0.006585
 C        -0.707739         1.191147        -0.107016
 C         0.301087         0.068508         0.080515
 O         1.459326         0.169755         0.213685
 C        -0.682770        -1.268577         0.061077
 C        -0.144058        -2.747971        -0.042473
 O        -1.687765        -0.932757        -0.865829
 H        -3.581432        -1.499524         0.706648
 H        -2.826120        -2.578028         1.909294
 H        -3.491250        -0.821908         2.332114
 H        -1.427242         0.042548         2.124942
 H        -2.935819         0.973990        -0.174687
 H        -0.566324         1.571920        -1.085087
 H        -0.623259         1.905904         0.762911
 H         0.072985        -3.285481         0.889036
 H        -1.039721        -3.285741        -0.544912
 H         0.578989        -2.739229        -0.903223
