19
Iteration:  1601
 C        -2.909026        -1.524680         1.477911
 C        -1.594709        -0.613702         1.262792
 C        -2.018161         0.346981         0.062295
 C        -0.783654         1.204670        -0.016448
 C         0.311462         0.035168         0.026444
 O         1.503442         0.093034         0.021578
 C        -0.622452        -1.199970         0.166641
 C        -0.288427        -2.681324         0.042317
 O        -1.630888        -0.841697        -0.922295
 H        -2.830930        -2.075750         2.371065
 H        -3.700106        -0.815170         1.653796
 H        -3.062072        -2.094249         0.566868
 H        -1.147811        -0.197765         2.103725
 H        -3.111836         0.751855         0.065076
 H        -0.599682         1.666611        -0.960583
 H        -0.897925         1.936178         0.848584
 H         0.696706        -2.721213         0.422914
 H        -0.920977        -3.169907         0.710795
 H        -0.290995        -3.146434        -0.911446
