19
Iteration:  4651charge 0 multiplicity 1
 C        -2.952960        -1.609009         1.406837
 C        -1.713526        -0.598389         1.182515
 C        -1.902687         0.336952         0.001068
 C        -0.706925         1.275580         0.021895
 C         0.264258         0.024465         0.014252
 O         1.499820        -0.030162        -0.014727
 C        -0.668723        -1.166833         0.173812
 C        -0.223546        -2.624956         0.201472
 O        -1.666051        -0.765825        -0.924217
 H        -3.662338        -1.927666         0.599051
 H        -2.559314        -2.457798         1.927970
 H        -3.530086        -1.138941         2.210466
 H        -1.313485        -0.130570         2.141380
 H        -2.848050         0.741720        -0.204245
 H        -0.764556         2.107050        -0.815300
 H        -0.516332         1.732522         1.096388
 H         0.326513        -2.638956         1.194864
 H        -0.977497        -3.311472         0.093172
 H         0.584956        -2.932613        -0.526624
