19
Iteration:   503charge 0 multiplicity 1
 C        -2.869476        -1.552575         1.520331
 C        -1.828035        -0.542772         1.101630
 C        -2.059850         0.374366        -0.150254
 C        -0.762497         1.109703         0.139422
 C         0.252076        -0.009048         0.081850
 O         1.430217        -0.085538        -0.095120
 C        -0.774381        -1.178451         0.215550
 C        -0.026246        -2.460850         0.306423
 O        -1.524301        -0.818989        -1.003680
 H        -2.363138        -2.506067         1.950828
 H        -3.389366        -0.962644         2.352943
 H        -3.544891        -1.865854         0.625777
 H        -1.457605        -0.041350         2.026607
 H        -2.930533         0.757706        -0.489053
 H        -0.592536         1.934017        -0.696784
 H        -0.691180         1.567213         1.072062
 H         0.762845        -2.361383         1.083914
 H        -0.575789        -3.355764         0.503742
 H         0.334603        -2.621857        -0.714808
