19
Iteration:   527
 C        -2.991962        -1.644390         1.486633
 C        -1.856494        -0.580258         1.245826
 C        -1.960451         0.338386        -0.053193
 C        -0.683236         1.242845        -0.083502
 C         0.256297         0.051918         0.088737
 O         1.469475         0.010172        -0.112887
 C        -0.659631        -1.166664         0.291092
 C        -0.105862        -2.558666         0.230782
 O        -1.558907        -0.830145        -0.914431
 H        -2.582434        -2.514627         2.103627
 H        -3.847757        -1.167692         1.998832
 H        -3.223435        -2.056367         0.456691
 H        -1.608156        -0.061574         2.192904
 H        -2.959750         0.716932        -0.359120
 H        -0.503400         1.766172        -1.051113
 H        -0.581119         2.023998         0.762628
 H         0.492221        -2.787303         1.115785
 H        -0.930186        -3.278812         0.186909
 H         0.423380        -2.757244        -0.724358
