19
Iteration:  1303charge 0 multiplicity 1
 C        -2.821841        -1.638587         1.646771
 C        -1.718823        -0.686895         1.168781
 C        -2.062997         0.332984        -0.001174
 C        -0.762128         1.233660        -0.103254
 C         0.254461        -0.029337         0.025592
 O         1.498435        -0.084947         0.098540
 C        -0.685001        -1.178417         0.095504
 C        -0.157028        -2.523969         0.167775
 O        -1.626121        -0.627170        -1.011487
 H        -2.540988        -2.568930         2.165180
 H        -3.458333        -1.127836         2.387545
 H        -3.320723        -1.849057         0.677892
 H        -1.391543        -0.091447         2.069145
 H        -3.179727         0.719555         0.098531
 H        -0.619853         1.846239        -1.060963
 H        -0.569045         2.028962         0.623144
 H         0.500779        -2.748039         1.015243
 H        -0.985740        -3.260862         0.156372
 H         0.279989        -2.706924        -0.805516
