19
Iteration:  2817charge 0 multiplicity 1
 C        -3.008125        -1.455114         1.685320
 C        -1.725543        -0.667822         1.156871
 C        -1.977366         0.305305         0.047952
 C        -0.680870         1.143776        -0.139654
 C         0.287481         0.007429         0.102614
 O         1.520042         0.130259         0.181314
 C        -0.754186        -1.193334         0.060983
 C        -0.153321        -2.637591         0.054907
 O        -1.591963        -0.818502        -1.023706
 H        -3.608312        -1.883179         0.871187
 H        -2.794415        -2.245501         2.403086
 H        -3.750391        -0.811269         2.114641
 H        -1.024831        -0.444729         1.961982
 H        -2.948898         0.687351        -0.167625
 H        -0.573614         1.569120        -1.150483
 H        -0.545971         2.066839         0.597224
 H         0.123142        -3.010993         0.998949
 H        -0.925043        -3.323180        -0.346505
 H         0.575916        -2.660845        -0.706405
