19
Iteration:  1078charge 0 multiplicity 1
 C        -2.949441        -1.471636         1.547053
 C        -1.653712        -0.660722         1.260836
 C        -2.002127         0.330514        -0.021874
 C        -0.822599         1.192836        -0.042840
 C         0.296875         0.019598         0.071129
 O         1.514553         0.181814         0.051811
 C        -0.705792        -1.263615         0.187408
 C        -0.223985        -2.738038         0.001313
 O        -1.535553        -0.786456        -0.919191
 H        -2.717754        -2.102411         2.427439
 H        -3.799927        -0.774760         1.732208
 H        -3.216206        -2.140919         0.711506
 H        -1.310969        -0.033003         2.079991
 H        -2.976496         0.638346        -0.188170
 H        -0.460510         1.731055        -0.929237
 H        -0.716436         1.818186         0.901125
 H         0.813113        -2.977917         0.082983
 H        -0.810980        -3.323028         0.745344
 H        -0.502417        -3.102292        -0.996010
