19
Iteration:   426
 C        -2.849696        -1.577619         1.489646
 C        -1.660848        -0.536363         1.265102
 C        -2.020266         0.380341        -0.090983
 C        -0.712573         1.295603        -0.253040
 C         0.319754         0.120176         0.064749
 O         1.507390         0.110243         0.218530
 C        -0.690198        -1.232042         0.244815
 C        -0.222360        -2.657549        -0.039683
 O        -1.701446        -1.019218        -0.749791
 H        -2.652482        -2.294456         2.314172
 H        -3.679244        -0.836073         1.542420
 H        -2.867611        -1.963247         0.462982
 H        -1.335042        -0.130357         2.238532
 H        -2.943286         0.500432        -0.376645
 H        -0.685424         1.728045        -1.350909
 H        -0.928240         1.955161         0.492506
 H         0.460210        -3.008780         0.736752
 H        -1.116196        -3.259814         0.066997
 H         0.119426        -2.697996        -1.053008
