19
Iteration:  3309
 C        -2.924460        -1.514513         1.512259
 C        -1.710937        -0.689446         1.207058
 C        -1.908165         0.344897         0.028460
 C        -0.670224         1.183081        -0.277756
 C         0.311316        -0.009890         0.099612
 O         1.474406         0.122139         0.207605
 C        -0.694004        -1.190581         0.140333
 C        -0.228841        -2.640267         0.045146
 O        -1.730146        -0.777376        -0.853133
 H        -3.505367        -1.921177         0.640337
 H        -2.593509        -2.435465         2.024771
 H        -3.478963        -0.934608         2.317008
 H        -1.090157        -0.495123         2.082977
 H        -2.840243         0.842622        -0.162479
 H        -0.563779         1.299110        -1.380312
 H        -0.702249         2.099741         0.352160
 H         0.314643        -2.756257         1.021586
 H        -0.919336        -3.412277        -0.196993
 H         0.600642        -2.636074        -0.699259
