19
Iteration:  4191charge 0 multiplicity 1
 C        -2.901729        -1.620187         1.656804
 C        -1.778840        -0.612649         1.205511
 C        -1.905739         0.365058        -0.036611
 C        -0.682390         1.185209        -0.145763
 C         0.277190        -0.062933         0.015076
 O         1.416766        -0.001567         0.207553
 C        -0.710313        -1.182635         0.136809
 C        -0.193355        -2.589441        -0.004361
 O        -1.642700        -0.715312        -0.940512
 H        -3.499879        -1.868451         0.822503
 H        -2.495636        -2.345070         2.287420
 H        -3.540967        -1.088001         2.321818
 H        -1.135534        -0.128240         2.009947
 H        -2.847009         0.884982        -0.150224
 H        -0.626174         1.814865        -1.114325
 H        -0.350966         1.981966         0.533596
 H         0.791180        -2.391488         0.444875
 H        -0.678970        -3.487567         0.450922
 H        -0.035017        -2.733833        -1.081087
