19
Iteration:  1325
 C        -2.896361        -1.583002         1.603413
 C        -1.760329        -0.645192         1.167370
 C        -1.919676         0.335542         0.002200
 C        -0.700735         1.171712        -0.064414
 C         0.266618         0.071807         0.070511
 O         1.513808         0.136016         0.072494
 C        -0.719753        -1.211979         0.112868
 C        -0.264615        -2.652424         0.048217
 O        -1.609056        -0.801319        -0.936158
 H        -2.512349        -2.536310         2.000159
 H        -3.337475        -1.181115         2.531796
 H        -3.580971        -1.776879         0.767786
 H        -1.234906        -0.298456         2.111516
 H        -2.842977         1.033949        -0.029523
 H        -0.812817         1.701495        -1.071507
 H        -0.547816         2.015148         0.613613
 H         0.556944        -2.743240         0.759203
 H        -0.994841        -3.373894         0.496005
 H         0.001594        -3.068338        -0.921840
