19
Iteration:  3665charge 0 multiplicity 1
 C        -2.792668        -1.561531         1.606883
 C        -1.758278        -0.603164         1.146157
 C        -1.991658         0.363148        -0.122366
 C        -0.725530         1.219811        -0.007765
 C         0.313150        -0.002633        -0.021024
 O         1.464212        -0.023685         0.145012
 C        -0.726738        -1.174746         0.078191
 C        -0.226958        -2.566638         0.163920
 O        -1.662650        -0.786785        -0.935719
 H        -3.639075        -1.844135         0.879831
 H        -2.380473        -2.618443         1.810321
 H        -3.196803        -1.185029         2.575218
 H        -1.352974        -0.020512         1.914350
 H        -2.968254         0.801939        -0.359687
 H        -0.288433         1.844827        -0.802356
 H        -0.797065         1.866188         0.887296
 H         0.388555        -2.903679         1.105900
 H        -1.038768        -3.311338        -0.096763
 H         0.578798        -2.790822        -0.669012
