19
Iteration:  3585charge 0 multiplicity 1
 C        -2.851539        -1.469464         1.553935
 C        -1.674950        -0.623471         1.234896
 C        -1.981967         0.344519        -0.014755
 C        -0.746728         1.112446        -0.130594
 C         0.308350         0.016550         0.072346
 O         1.521898         0.068738         0.220272
 C        -0.684891        -1.201466         0.112702
 C        -0.177815        -2.608435        -0.072099
 O        -1.761131        -0.859424        -0.842342
 H        -3.074703        -2.150980         0.744507
 H        -2.976809        -1.967203         2.534289
 H        -3.778148        -0.828414         1.520985
 H        -1.193193        -0.022972         2.055279
 H        -2.983949         0.842811        -0.270864
 H        -0.582527         1.506931        -1.135617
 H        -0.312070         2.008630         0.490811
 H         0.450266        -2.763714         0.758977
 H        -1.064112        -3.277254        -0.051507
 H         0.286949        -2.588775        -1.035149
