19
Iteration:  1718charge 0 multiplicity 1
 C        -2.834256        -1.607151         1.621002
 C        -1.618526        -0.645479         1.179838
 C        -2.007079         0.367297         0.014713
 C        -0.680036         1.096982        -0.150968
 C         0.280021        -0.033418         0.007220
 O         1.508728         0.110490         0.147503
 C        -0.819140        -1.188415         0.134064
 C        -0.215474        -2.583445         0.060246
 O        -1.725025        -0.712770        -0.928185
 H        -2.534572        -2.206672         2.493999
 H        -3.660045        -0.992771         2.030534
 H        -3.173631        -2.189479         0.740080
 H        -1.009482        -0.284088         2.094177
 H        -2.887468         0.898914        -0.169105
 H        -0.713510         1.530165        -1.150465
 H        -0.514506         1.921305         0.514678
 H         0.127583        -2.966518         1.049413
 H        -0.995324        -3.275522        -0.306285
 H         0.780861        -2.708962        -0.474602
