19
Iteration:  4772
 C        -2.933407        -1.548960         1.595333
 C        -1.731955        -0.651245         1.246575
 C        -1.994205         0.359992        -0.025995
 C        -0.682761         1.181887        -0.172735
 C         0.298496        -0.028319         0.012345
 O         1.481535         0.014274         0.244727
 C        -0.719121        -1.195133         0.164638
 C        -0.191160        -2.550341        -0.007286
 O        -1.619509        -0.768067        -0.934070
 H        -3.590331        -1.863224         0.813265
 H        -2.568648        -2.423845         2.009422
 H        -3.452381        -0.963291         2.299266
 H        -1.305925        -0.203697         2.122944
 H        -2.910000         0.825127        -0.427731
 H        -0.903223         1.561716        -1.225744
 H        -0.311174         1.861722         0.651631
 H         0.719971        -2.624496         0.603391
 H        -1.075787        -3.222361         0.109252
 H         0.284610        -2.740854        -0.948727
