19
Iteration:  1801
 C        -2.900905        -1.559354         1.689282
 C        -1.739997        -0.763872         1.161976
 C        -2.040805         0.363444        -0.027703
 C        -0.737324         1.225974        -0.083832
 C         0.282535        -0.010274        -0.009193
 O         1.503032        -0.111656         0.046506
 C        -0.713576        -1.172648         0.133953
 C        -0.035140        -2.553800         0.149742
 O        -1.711142        -0.637051        -0.968227
 H        -2.513874        -2.305542         2.458033
 H        -3.584430        -0.828619         2.156751
 H        -3.409469        -2.173987         0.932753
 H        -1.326244        -0.210562         1.977564
 H        -3.023546         0.922083        -0.313579
 H        -0.781499         1.942218        -1.011653
 H        -0.614575         1.834080         0.833333
 H         0.667212        -2.639669         1.015898
 H        -0.738886        -3.422182         0.032451
 H         0.504686        -2.534031        -0.785263
