19
Iteration:  1129
 C        -2.901836        -1.656400         1.490514
 C        -1.764625        -0.675628         1.240748
 C        -1.977027         0.333434         0.037533
 C        -0.717889         1.267662        -0.104670
 C         0.280843         0.047021         0.051972
 O         1.453156        -0.111613         0.011119
 C        -0.701301        -1.196564         0.189510
 C        -0.140195        -2.510650         0.158387
 O        -1.653140        -0.669243        -0.929694
 H        -2.584165        -2.388786         2.210458
 H        -3.793939        -1.141207         1.863392
 H        -3.107353        -2.213883         0.560268
 H        -1.366205        -0.179754         2.147171
 H        -3.016142         0.872796        -0.052477
 H        -0.835674         1.561404        -1.098457
 H        -0.265442         2.085019         0.544125
 H         0.817771        -2.472834         0.794406
 H        -0.741576        -3.358745         0.493195
 H         0.381869        -2.616120        -0.808758
