19
Iteration:  3795
 C        -2.866458        -1.694190         1.596856
 C        -1.815536        -0.601582         1.174901
 C        -2.003259         0.387330         0.008986
 C        -0.686432         1.177010        -0.026038
 C         0.306755         0.013960         0.081735
 O         1.467082        -0.017166         0.003516
 C        -0.698684        -1.145132         0.150329
 C        -0.233161        -2.599730         0.153218
 O        -1.574361        -0.680638        -1.012414
 H        -3.251137        -2.293351         0.701133
 H        -2.655794        -2.285118         2.508090
 H        -3.608022        -1.010771         1.991829
 H        -1.157536        -0.229829         2.098640
 H        -2.920706         0.894065        -0.325232
 H        -0.714564         1.689999        -0.990744
 H        -0.603954         1.922013         0.815344
 H         0.596517        -2.748076         0.819414
 H        -0.883933        -3.411346         0.443179
 H         0.107392        -2.849458        -0.880147
