19
Iteration:  3058
 C        -2.849566        -1.575230         1.512987
 C        -1.705864        -0.654208         1.227136
 C        -1.961766         0.327782         0.070761
 C        -0.694398         1.182632        -0.329882
 C         0.258067         0.044944        -0.000976
 O         1.475374         0.087300         0.257553
 C        -0.657382        -1.219602         0.147325
 C        -0.281617        -2.657508         0.135440
 O        -1.632903        -0.709525        -0.915647
 H        -3.095638        -2.099324         0.593122
 H        -2.322734        -2.331519         2.098505
 H        -3.615773        -1.205452         2.191437
 H        -1.345358        -0.108800         2.141118
 H        -2.892015         0.812224        -0.181457
 H        -0.795666         1.534862        -1.280899
 H        -0.565799         2.155686         0.097266
 H        -0.278935        -3.279439         1.128680
 H        -1.278041        -3.022806        -0.247651
 H         0.653606        -2.918182        -0.432390
