19
Iteration:  4180
 C        -2.885200        -1.533987         1.637652
 C        -1.753761        -0.547362         1.210421
 C        -1.952989         0.360749        -0.037509
 C        -0.659146         1.204307        -0.126857
 C         0.245147        -0.010147         0.007062
 O         1.467254        -0.062769         0.209808
 C        -0.804905        -1.233586         0.130189
 C        -0.079430        -2.536944        -0.044362
 O        -1.685504        -0.774031        -0.908830
 H        -3.477248        -1.948743         0.859430
 H        -2.422926        -2.441626         1.935195
 H        -3.516697        -1.160468         2.397836
 H        -1.377897        -0.125394         2.194718
 H        -2.870417         0.834656        -0.347247
 H        -0.573181         1.761247        -1.123724
 H        -0.609363         1.740562         0.829651
 H         0.848926        -2.616279         0.539824
 H        -0.777604        -3.316281         0.370007
 H         0.177177        -2.813710        -1.062802
