19
Iteration:  2457charge 0 multiplicity 1
 C        -2.831844        -1.727496         1.575421
 C        -1.812499        -0.660386         1.203171
 C        -2.032644         0.414511        -0.083803
 C        -0.626636         1.238517        -0.125792
 C         0.232909         0.030273         0.092000
 O         1.467625        -0.100517         0.021660
 C        -0.807837        -1.158020         0.226891
 C        -0.149034        -2.523398         0.248446
 O        -1.600636        -0.667894        -0.999215
 H        -3.459255        -1.913272         0.694718
 H        -2.320636        -2.718634         1.829434
 H        -3.468841        -1.524146         2.464396
 H        -1.290699        -0.061663         1.977524
 H        -3.031517         0.876404        -0.464767
 H        -0.473596         1.799741        -1.009480
 H        -0.528751         2.037410         0.645374
 H         0.694035        -2.557254         0.968249
 H        -0.866942        -3.402350         0.352113
 H         0.430033        -2.646957        -0.730075
