19
Iteration:  2416charge 0 multiplicity 1
 C        -2.973239        -1.528454         1.498109
 C        -1.691649        -0.605176         1.210577
 C        -1.958790         0.291087        -0.031961
 C        -0.749727         1.294973         0.012050
 C         0.284054         0.048829         0.094652
 O         1.536786         0.109252        -0.081001
 C        -0.679245        -1.253079         0.242024
 C        -0.206552        -2.692552         0.121032
 O        -1.627497        -0.848189        -0.898324
 H        -2.968007        -2.086204         0.584235
 H        -3.208130        -2.127586         2.325108
 H        -3.787255        -0.866012         1.281527
 H        -1.325555        -0.271437         2.116873
 H        -2.981937         0.726155        -0.216459
 H        -0.641327         1.985759        -0.792508
 H        -0.585502         1.865459         0.973086
 H         0.672008        -2.760788         0.749961
 H        -1.012882        -3.411019         0.428644
 H         0.226156        -2.937323        -0.815814
