19
Iteration:  4681
 C        -2.886406        -1.665703         1.459635
 C        -1.832031        -0.517292         1.205953
 C        -1.997772         0.352011         0.007888
 C        -0.668663         1.203271         0.023723
 C         0.320331        -0.042591         0.202497
 O         1.455457        -0.083653        -0.099365
 C        -0.733880        -1.142020         0.266287
 C        -0.224187        -2.523845         0.130942
 O        -1.545161        -0.714674        -1.001108
 H        -3.177572        -2.374978         0.748663
 H        -2.491032        -2.314888         2.200736
 H        -3.767901        -1.234036         1.869077
 H        -1.570713         0.086939         2.039485
 H        -2.938281         0.747467        -0.331932
 H        -0.573088         1.506237        -1.031008
 H        -0.536018         1.863465         0.907009
 H         0.620467        -2.591676         0.882284
 H        -0.960259        -3.271725         0.355236
 H         0.331519        -2.646446        -0.874557
