19
Iteration:  4298charge 0 multiplicity 1
 C        -2.975395        -1.591640         1.570599
 C        -1.768243        -0.660029         1.203216
 C        -1.938463         0.362692         0.048849
 C        -0.721211         1.171878        -0.099378
 C         0.208182         0.001504        -0.010745
 O         1.466775        -0.122801         0.095052
 C        -0.730445        -1.151327         0.114340
 C        -0.057822        -2.489350         0.090823
 O        -1.607703        -0.704575        -0.899321
 H        -3.684227        -1.775148         0.685934
 H        -2.695451        -2.536624         2.164494
 H        -3.487990        -0.844361         2.337305
 H        -1.228758        -0.196813         2.065565
 H        -2.861536         0.875524        -0.196980
 H        -0.626793         1.545080        -1.167447
 H        -0.445130         1.906352         0.621930
 H         0.651857        -2.590226         0.917438
 H        -0.877144        -3.292230        -0.031693
 H         0.538133        -2.620514        -0.814472
