19
Iteration:  2653charge 0 multiplicity 1
 C        -3.032432        -1.510811         1.414875
 C        -1.833529        -0.656309         1.233024
 C        -1.964899         0.253705         0.067645
 C        -0.629931         1.106377        -0.113916
 C         0.324046         0.072196         0.088469
 O         1.506724         0.147511        -0.008583
 C        -0.674609        -1.207886         0.230732
 C        -0.202675        -2.629071         0.131364
 O        -1.551080        -0.784541        -0.872921
 H        -3.755273        -1.539122         0.533731
 H        -2.674976        -2.567203         1.655825
 H        -3.652996        -1.208130         2.312476
 H        -1.416519        -0.046209         2.122565
 H        -2.957071         0.727689        -0.219103
 H        -0.706462         1.602867        -1.138141
 H        -0.525824         2.000006         0.641260
 H         0.785515        -2.684083         0.551333
 H        -0.793435        -3.434034         0.687367
 H        -0.187903        -2.833970        -0.941844
