19
Iteration:  1418
 C        -2.784350        -1.611148         1.633135
 C        -1.791673        -0.626097         1.195829
 C        -2.049180         0.444091        -0.039325
 C        -0.669821         1.192694        -0.004252
 C         0.231977         0.023800        -0.047927
 O         1.485397        -0.161142         0.113534
 C        -0.779990        -1.140060         0.114393
 C        -0.030312        -2.488773         0.070736
 O        -1.772021        -0.780030        -0.971791
 H        -2.454712        -2.160318         2.539106
 H        -3.832277        -1.304312         1.897247
 H        -2.820987        -2.285874         0.730878
 H        -1.372303        -0.019403         2.077459
 H        -3.011377         1.034007        -0.211556
 H        -0.434726         1.828372        -0.904952
 H        -0.375243         1.927117         0.769322
 H         0.597421        -2.379188         1.047814
 H        -0.589692        -3.414434         0.273096
 H         0.578214        -2.745321        -0.837570
