19
Iteration:  4623charge 0 multiplicity 1
 C        -3.039370        -1.544325         1.449320
 C        -1.638628        -0.686955         1.221282
 C        -1.921149         0.316390         0.059689
 C        -0.696738         1.072342        -0.084614
 C         0.331520        -0.009887         0.086181
 O         1.508445         0.110597         0.030061
 C        -0.763566        -1.209099         0.154215
 C        -0.202783        -2.590657         0.146636
 O        -1.665189        -0.683081        -0.913321
 H        -3.639374        -1.471275         0.528865
 H        -2.734692        -2.515005         1.947160
 H        -3.596681        -1.075786         2.307358
 H        -1.033921        -0.375578         2.078465
 H        -2.923586         0.841378        -0.166094
 H        -0.678166         1.438171        -1.067341
 H        -0.485900         1.987621         0.454696
 H         0.119170        -2.732427         1.162793
 H        -0.813469        -3.478585        -0.337552
 H         0.692868        -2.667286        -0.442843
