19
Iteration:  4771
 C        -2.939663        -1.545382         1.591904
 C        -1.729089        -0.642676         1.244772
 C        -1.984747         0.355579        -0.019114
 C        -0.680512         1.179729        -0.167039
 C         0.287606        -0.019804         0.011277
 O         1.481270         0.017442         0.242257
 C        -0.717962        -1.202725         0.164888
 C        -0.193096        -2.557081        -0.006619
 O        -1.625020        -0.771042        -0.934828
 H        -3.558963        -1.849855         0.797749
 H        -2.560205        -2.394732         2.018024
 H        -3.482339        -0.961355         2.286246
 H        -1.294414        -0.251338         2.118932
 H        -2.862700         0.807450        -0.438366
 H        -0.916309         1.588070        -1.199458
 H        -0.309708         1.869016         0.638405
 H         0.741207        -2.613547         0.611813
 H        -1.042233        -3.213619         0.113783
 H         0.304398        -2.773482        -0.974664
