19
Iteration:  4586
 C        -2.918854        -1.540223         1.548307
 C        -1.706435        -0.501259         1.222323
 C        -1.968041         0.320696        -0.073025
 C        -0.752247         1.239077        -0.111037
 C         0.319537         0.006378         0.051898
 O         1.490752        -0.083668         0.168616
 C        -0.662903        -1.173028         0.182621
 C        -0.172053        -2.577809        -0.046093
 O        -1.683166        -0.816876        -0.845811
 H        -3.424051        -2.082758         0.701047
 H        -2.650675        -2.409685         2.168168
 H        -3.710365        -0.939671         2.081686
 H        -1.267643        -0.110915         2.204417
 H        -2.897754         0.792388        -0.234164
 H        -0.735867         1.645545        -1.133438
 H        -0.700263         1.813927         0.792793
 H         0.254901        -3.072296         0.859894
 H        -0.914420        -3.145229        -0.442444
 H         0.687800        -2.409208        -0.732434
