19
Iteration:  3167charge 0 multiplicity 1
 C        -2.985865        -1.536111         1.393624
 C        -1.784437        -0.510490         1.214954
 C        -1.948706         0.286654        -0.005016
 C        -0.671800         1.204739        -0.095654
 C         0.321291         0.012850         0.013625
 O         1.529225         0.047391         0.038437
 C        -0.646310        -1.224980         0.292117
 C        -0.134674        -2.613853         0.146636
 O        -1.708330        -0.816885        -0.870964
 H        -3.498088        -1.846892         0.435285
 H        -2.621431        -2.497528         1.827600
 H        -3.801944        -1.240745         2.116388
 H        -1.337384        -0.108685         2.187345
 H        -2.894268         0.759491        -0.170123
 H        -0.863953         1.778375        -0.965927
 H        -0.626408         1.789103         0.785286
 H         0.994571        -2.515446         0.442518
 H        -0.703918        -3.312822         0.788754
 H        -0.341814        -2.955669        -0.923899
