19
Iteration:  1892charge 0 multiplicity 1
 C        -2.951486        -1.522046         1.489327
 C        -1.644232        -0.733355         1.214382
 C        -1.945403         0.314649         0.079525
 C        -0.701044         1.223738        -0.113375
 C         0.262247         0.103611         0.137202
 O         1.491622         0.161601        -0.057556
 C        -0.668921        -1.266294         0.240179
 C        -0.253403        -2.684967         0.160838
 O        -1.618484        -0.778292        -0.956204
 H        -2.645525        -2.574600         1.527851
 H        -3.367583        -1.188657         2.474835
 H        -3.745281        -1.429451         0.698582
 H        -1.332290        -0.234675         2.142143
 H        -2.854760         0.785416        -0.016556
 H        -0.764659         1.550871        -1.124873
 H        -0.569983         2.035810         0.600411
 H         0.799080        -2.980239         0.370207
 H        -0.912489        -3.382764         0.731902
 H        -0.513891        -2.971745        -0.957216
