19
Iteration:  3112charge 0 multiplicity 1
 C        -2.909297        -1.503388         1.670040
 C        -1.765764        -0.598179         1.120867
 C        -2.088821         0.369931        -0.123517
 C        -0.715563         1.168694        -0.048527
 C         0.253198        -0.012950         0.028252
 O         1.471263        -0.064230         0.162990
 C        -0.709684        -1.214573         0.153968
 C        -0.043895        -2.602269         0.063667
 O        -1.589457        -0.767861        -0.977290
 H        -3.526399        -2.136436         1.008069
 H        -2.658129        -2.037612         2.617908
 H        -3.680506        -0.748936         1.948270
 H        -1.263526         0.047497         1.886508
 H        -3.032700         0.818630        -0.328068
 H        -0.498548         1.904994        -0.774207
 H        -0.843589         1.782210         0.755449
 H         0.691957        -2.593881         0.974332
 H        -0.854410        -3.375607         0.203398
 H         0.545393        -2.680519        -0.919350
