19
Iteration:  2622charge 0 multiplicity 1
 C        -2.857922        -1.648571         1.433792
 C        -1.749769        -0.663895         1.169408
 C        -1.985256         0.369205         0.003424
 C        -0.673397         1.252344        -0.111608
 C         0.243248         0.098825         0.055890
 O         1.464206        -0.149202         0.077465
 C        -0.683620        -1.129098         0.166217
 C        -0.151079        -2.546975         0.243288
 O        -1.660305        -0.722879        -0.919089
 H        -3.214991        -2.255672         0.574644
 H        -2.672574        -2.419648         2.181253
 H        -3.750335        -1.145401         1.851664
 H        -1.343037        -0.246912         2.105873
 H        -2.919364         0.895448        -0.287217
 H        -0.737707         1.794160        -0.966557
 H        -0.752655         2.029017         0.639280
 H         0.864072        -2.435521         0.563932
 H        -0.837120        -3.228498         0.766364
 H         0.025738        -2.856229        -0.763103
