19
Iteration:  2203charge 0 multiplicity 1
 C        -2.870276        -1.607342         1.700732
 C        -1.711008        -0.674195         1.216462
 C        -2.042194         0.397405         0.067989
 C        -0.610599         1.267227        -0.012387
 C         0.241555         0.029979         0.071445
 O         1.401459        -0.153940         0.092125
 C        -0.774414        -1.196908        -0.030741
 C        -0.038745        -2.517713         0.085169
 O        -1.704894        -0.698330        -1.058068
 H        -2.853581        -1.736404         2.837827
 H        -3.894072        -1.394393         1.344821
 H        -2.650964        -2.627281         1.266579
 H        -1.244550        -0.092134         2.000540
 H        -3.041529         0.860129        -0.183707
 H        -0.599581         1.654475        -1.088125
 H        -0.358162         2.027256         0.684898
 H         1.006487        -2.270890         0.505110
 H        -0.717379        -3.288648         0.582581
 H         0.098161        -2.918042        -0.958534
