19
Iteration:  2052charge 0 multiplicity 1
 C        -2.793243        -1.706837         1.730647
 C        -1.727580        -0.688843         1.154476
 C        -2.032909         0.375164         0.005810
 C        -0.712194         1.252269        -0.026261
 C         0.305147        -0.028526         0.075766
 O         1.490915        -0.077671         0.024622
 C        -0.689767        -1.159893         0.101804
 C        -0.220210        -2.533608        -0.014090
 O        -1.670296        -0.635237        -0.919360
 H        -3.682832        -1.089427         1.682980
 H        -2.974046        -2.604357         1.177927
 H        -2.782228        -1.950867         2.790555
 H        -1.162653        -0.254718         2.047366
 H        -3.083582         0.846505        -0.369135
 H        -0.756033         1.734645        -1.080694
 H        -0.586050         2.098284         0.684518
 H         0.083835        -2.935939         0.937552
 H        -1.064052        -3.039767        -0.436209
 H         0.558740        -2.553559        -0.732819
