19
Iteration:  2421
 C        -2.953126        -1.524790         1.492719
 C        -1.741289        -0.611396         1.189934
 C        -2.042091         0.290884        -0.025797
 C        -0.702000         1.283381         0.025786
 C         0.324718         0.050339         0.087661
 O         1.538313         0.083380        -0.072096
 C        -0.688378        -1.192133         0.191227
 C        -0.199978        -2.676709         0.138507
 O        -1.618117        -0.856845        -0.875903
 H        -2.943411        -2.106676         0.518701
 H        -2.966384        -2.268554         2.378944
 H        -3.904123        -0.917609         1.392030
 H        -1.246381        -0.146318         2.161531
 H        -2.986707         0.714253        -0.312683
 H        -0.657383         2.001858        -0.864819
 H        -0.598234         1.726191         1.006609
 H         0.619794        -2.774126         0.895107
 H        -0.924709        -3.407109         0.434157
 H         0.143609        -2.918855        -0.918709
