19
Iteration:   571
 C        -2.920306        -1.548987         1.387891
 C        -1.633291        -0.613319         1.314632
 C        -1.967825         0.291762         0.109869
 C        -0.697298         1.072126        -0.150542
 C         0.258639         0.007301        -0.041724
 O         1.455280         0.221017         0.052872
 C        -0.697253        -1.145215         0.174359
 C        -0.218003        -2.650499         0.207919
 O        -1.663157        -0.841231        -0.888692
 H        -3.166196        -2.030826         2.384351
 H        -3.706291        -0.853697         1.047942
 H        -2.741480        -2.292604         0.564395
 H        -1.053764        -0.160080         2.140010
 H        -2.813169         0.951265        -0.112303
 H        -0.724466         1.469686        -1.150338
 H        -0.365245         1.873952         0.615118
 H        -0.031682        -2.950353         1.224027
 H        -1.015883        -3.310542        -0.210118
 H         0.676167        -2.766771        -0.429460
