19
Iteration:  1362
 C        -2.888823        -1.450709         1.518704
 C        -1.712352        -0.650056         1.222190
 C        -1.921835         0.288292         0.052344
 C        -0.787374         1.168987        -0.096448
 C         0.280712         0.063602         0.017842
 O         1.538244         0.129446         0.093305
 C        -0.643374        -1.235415         0.157221
 C        -0.243337        -2.645995        -0.034463
 O        -1.629173        -0.860817        -0.815189
 H        -2.746341        -2.387724         2.068034
 H        -3.661752        -0.879953         2.059081
 H        -3.336427        -1.795292         0.574765
 H        -1.517455         0.013385         2.102265
 H        -2.953028         0.801759        -0.061522
 H        -0.790452         1.639124        -1.014433
 H        -0.839905         1.742509         0.819259
 H         0.787912        -2.872663         0.325213
 H        -0.997978        -3.239251         0.506593
 H        -0.253798        -2.823350        -1.147882
