19
Iteration:  4910charge 0 multiplicity 1
 C        -2.984766        -1.535664         1.459837
 C        -1.849230        -0.611407         1.217596
 C        -1.922407         0.305117         0.002794
 C        -0.683393         1.219071         0.014517
 C         0.331880         0.021497         0.116463
 O         1.506302        -0.044522        -0.043224
 C        -0.707020        -1.153775         0.255262
 C        -0.125826        -2.567988         0.043629
 O        -1.659384        -0.826504        -0.876808
 H        -3.228051        -2.247754         0.630908
 H        -2.879729        -2.157526         2.462803
 H        -3.851389        -0.751508         1.582417
 H        -1.372497        -0.166890         2.172380
 H        -2.822048         0.881969        -0.128873
 H        -0.423767         1.793905        -0.846362
 H        -0.771778         2.104863         0.576805
 H         0.867283        -2.653010         0.462079
 H        -0.818008        -3.266838         0.201637
 H         0.267835        -2.768028        -0.986771
