19
Iteration:  3729
 C        -2.999327        -1.538750         1.457019
 C        -1.751913        -0.626225         1.265665
 C        -1.924421         0.379826         0.071022
 C        -0.697701         1.226519        -0.039935
 C         0.237271         0.042164         0.000048
 O         1.495775         0.003847        -0.020609
 C        -0.698245        -1.174704         0.208465
 C        -0.069753        -2.613019         0.068833
 O        -1.655115        -0.878881        -0.846006
 H        -3.035929        -2.167244         0.541222
 H        -3.183070        -2.135638         2.352425
 H        -3.820207        -0.846901         1.383883
 H        -1.396841        -0.292910         2.295126
 H        -2.888102         0.887242        -0.121986
 H        -0.398789         1.649658        -0.966089
 H        -0.460203         1.954489         0.764396
 H         0.735280        -2.689319         0.715187
 H        -0.940959        -3.236561         0.246058
 H         0.019009        -2.515944        -0.989950
