19
Iteration:  4599
 C        -3.004271        -1.526558         1.524418
 C        -1.730217        -0.648229         1.217021
 C        -1.994373         0.399642         0.075674
 C        -0.678605         1.214705        -0.151284
 C         0.248331         0.055764         0.015547
 O         1.505100        -0.014286         0.130112
 C        -0.682853        -1.164941         0.203296
 C        -0.115734        -2.638878         0.004366
 O        -1.635060        -0.831352        -0.861735
 H        -3.497919        -1.684138         0.514435
 H        -2.571656        -2.399457         2.091331
 H        -3.724061        -1.048194         2.272628
 H        -1.269955        -0.142733         2.107794
 H        -2.956721         0.814075        -0.245439
 H        -0.621626         1.701756        -1.067320
 H        -0.441854         2.019962         0.433781
 H         0.168388        -3.179495         0.909708
 H        -0.937832        -3.119204        -0.524475
 H         0.656143        -2.770979        -0.721924
