19
Iteration:   925
 C        -2.833295        -1.467873         1.607567
 C        -1.793839        -0.571181         1.215402
 C        -2.068665         0.246000        -0.080651
 C        -0.837522         1.223279        -0.009390
 C         0.293088         0.040263         0.098899
 O         1.535077        -0.001754         0.114151
 C        -0.625125        -1.111077         0.173333
 C        -0.149065        -2.643274        -0.035998
 O        -1.594387        -0.844310        -0.982638
 H        -2.655476        -2.098875         2.497889
 H        -3.610155        -0.730535         1.987532
 H        -3.181016        -2.204139         0.809236
 H        -1.277040        -0.066064         2.093666
 H        -3.051409         0.633264        -0.244008
 H        -0.885633         1.929996        -0.800734
 H        -0.692453         1.782138         0.948054
 H         0.478714        -3.139533         0.747576
 H        -1.060113        -3.251708        -0.037322
 H         0.291712        -2.949722        -1.013654
