19
Iteration:  1752
 C        -2.866688        -1.575873         1.617278
 C        -1.656174        -0.568598         1.253561
 C        -2.019841         0.327188        -0.053885
 C        -0.779850         1.183523        -0.149644
 C         0.324196         0.072112         0.010693
 O         1.520831         0.121622         0.112229
 C        -0.576530        -1.160278         0.187738
 C        -0.323356        -2.722405        -0.079712
 O        -1.621739        -0.822788        -0.784741
 H        -2.755667        -1.955802         2.610235
 H        -3.746086        -0.921624         1.553921
 H        -3.043320        -2.457907         0.978219
 H        -1.070175        -0.154806         2.125081
 H        -3.008386         0.702552        -0.256172
 H        -0.767049         1.624547        -1.111489
 H        -0.750042         1.963669         0.648671
 H        -0.374308        -3.197595         0.875140
 H        -1.247731        -2.999040        -0.521926
 H         0.395787        -3.087042        -0.841988
