19
Iteration:  4127
 C        -2.955239        -1.582744         1.620321
 C        -1.697096        -0.624947         1.189460
 C        -1.972030         0.383055         0.108403
 C        -0.666648         1.225134        -0.134289
 C         0.199277        -0.018872        -0.044291
 O         1.455522         0.050037         0.117844
 C        -0.690294        -1.233741         0.141038
 C        -0.139881        -2.637207         0.052568
 O        -1.627021        -0.723622        -0.954473
 H        -3.503260        -1.929323         0.657395
 H        -2.771837        -2.572773         2.253448
 H        -3.657965        -0.868322         2.185670
 H        -1.213548        -0.203232         2.220370
 H        -2.978964         0.805308        -0.017779
 H        -0.665872         1.532813        -1.252755
 H        -0.152022         1.886051         0.639042
 H         0.265605        -2.948549         1.045430
 H        -0.948384        -3.421684        -0.096722
 H         0.661791        -2.665026        -0.723134
