19
Iteration:  4050charge 0 multiplicity 1
 C        -2.872792        -1.638838         1.551937
 C        -1.829333        -0.632287         1.202575
 C        -1.976621         0.359389         0.029304
 C        -0.666626         1.247340         0.004255
 C         0.254552        -0.062900         0.077962
 O         1.505349        -0.029435        -0.040450
 C        -0.732194        -1.195528         0.133205
 C        -0.174372        -2.565970         0.171075
 O        -1.623412        -0.688156        -0.990970
 H        -3.275904        -1.917443         0.583164
 H        -2.470970        -2.326753         2.338664
 H        -3.735213        -1.132010         2.104758
 H        -1.440115        -0.289789         2.112793
 H        -2.884352         0.917628        -0.132073
 H        -0.497454         1.603069        -1.078651
 H        -0.581313         2.069684         0.730164
 H         0.393917        -2.643365         1.121160
 H        -0.882306        -3.435751         0.103727
 H         0.460413        -2.537786        -0.706092
