19
Iteration:  1171charge 0 multiplicity 1
 C        -2.906088        -1.635894         1.593748
 C        -1.768374        -0.576614         1.154328
 C        -1.926379         0.318871        -0.040742
 C        -0.658766         1.259111         0.040971
 C         0.270001         0.019989         0.023130
 O         1.500954        -0.018579        -0.016755
 C        -0.721870        -1.185093         0.137751
 C        -0.138342        -2.494228         0.145110
 O        -1.713625        -0.816250        -0.950709
 H        -2.411730        -2.557064         1.853955
 H        -3.573012        -1.270098         2.367249
 H        -3.661145        -1.882074         0.821956
 H        -1.335815        -0.000268         2.029329
 H        -3.017173         0.674565        -0.297519
 H        -0.466380         1.885052        -0.834387
 H        -0.711117         1.633073         1.013783
 H         0.073234        -2.829848         1.209484
 H        -0.875470        -3.152827        -0.268500
 H         0.808636        -2.654918        -0.350481
