19
Iteration:  2473
 C        -2.836692        -1.673035         1.563076
 C        -1.790530        -0.612161         1.167941
 C        -1.949428         0.387485        -0.008383
 C        -0.739280         1.326862        -0.166699
 C         0.186938         0.035181         0.101375
 O         1.427766        -0.166294         0.114204
 C        -0.727726        -1.146947         0.087745
 C        -0.100835        -2.549172         0.181775
 O        -1.599281        -0.691191        -0.962164
 H        -3.740401        -1.880246         0.989963
 H        -2.287631        -2.564526         1.571964
 H        -3.161454        -1.462143         2.571582
 H        -1.284001        -0.349594         2.107875
 H        -2.899805         0.787135        -0.143787
 H        -0.663254         1.396478        -1.317599
 H        -0.568815         2.156131         0.512654
 H         0.283620        -2.465274         1.200349
 H        -0.777032        -3.372347         0.278531
 H         0.559294        -2.780025        -0.604667
