19
Iteration:  3879
 C        -2.838966        -1.545352         1.669123
 C        -1.732939        -0.631757         1.168240
 C        -1.997880         0.372092         0.038415
 C        -0.651157         1.205693        -0.193188
 C         0.225510        -0.061470         0.061710
 O         1.476464        -0.013938         0.238671
 C        -0.766647        -1.167661         0.137160
 C        -0.093625        -2.564959        -0.016041
 O        -1.728154        -0.763153        -0.976360
 H        -3.482709        -1.725096         0.811501
 H        -2.504900        -2.479408         2.069601
 H        -3.513628        -0.973546         2.280837
 H        -1.143943        -0.488510         1.938126
 H        -3.042619         0.787367        -0.069768
 H        -0.476234         1.480302        -1.226692
 H        -0.593155         2.127718         0.463363
 H         0.475022        -2.748422         0.874604
 H        -0.919666        -3.286895        -0.254581
 H         0.721378        -2.578088        -0.738719
