19
Iteration:  3782
 C        -2.911872        -1.658037         1.587343
 C        -1.782957        -0.745213         1.147077
 C        -1.938662         0.354303         0.007313
 C        -0.707143         1.287639        -0.057134
 C         0.282196         0.033083         0.018687
 O         1.488404        -0.076908        -0.008599
 C        -0.794879        -1.163057         0.154882
 C        -0.197321        -2.557090         0.157861
 O        -1.548857        -0.660152        -0.945095
 H        -3.077987        -2.545081         0.929276
 H        -2.522824        -2.061748         2.491311
 H        -3.851851        -1.220520         1.764434
 H        -1.519692        -0.235948         2.150244
 H        -2.953871         0.820842        -0.124253
 H        -0.511540         1.917412        -0.926457
 H        -0.497686         1.923656         0.892028
 H         0.607622        -2.393744         0.819598
 H        -0.989392        -3.195792         0.603417
 H         0.124032        -2.874213        -0.817322
