19
Iteration:  2491charge 0 multiplicity 1
 C        -2.824730        -1.584314         1.571788
 C        -1.682333        -0.638736         1.165806
 C        -2.062589         0.339258        -0.015218
 C        -0.726947         1.137576        -0.157594
 C         0.265911         0.017022        -0.005273
 O         1.521684        -0.056386         0.217182
 C        -0.724747        -1.167987         0.139512
 C        -0.126610        -2.487951         0.162044
 O        -1.714424        -0.738456        -0.987026
 H        -3.590235        -1.366855         0.813491
 H        -2.625219        -2.673288         1.570971
 H        -3.249188        -1.295161         2.539320
 H        -1.351425        -0.141417         2.079005
 H        -3.077249         0.865250        -0.158384
 H        -0.650374         1.638358        -1.070359
 H        -0.563145         1.864670         0.678244
 H         0.326838        -2.856005         1.105326
 H        -0.932756        -3.241163        -0.178903
 H         0.610432        -2.495896        -0.668173
