19
Iteration:   994
 C        -2.754361        -1.571296         1.468347
 C        -1.660418        -0.630927         1.227187
 C        -1.987157         0.313948         0.050441
 C        -0.735898         1.209922        -0.218752
 C         0.301232         0.050675         0.042846
 O         1.467345        -0.085800         0.282875
 C        -0.760507        -1.161518         0.031128
 C        -0.140951        -2.480647         0.108882
 O        -1.774104        -0.795553        -0.903022
 H        -2.574583        -2.545033         1.963267
 H        -3.531303        -1.100709         2.070772
 H        -3.160246        -1.881715         0.507327
 H        -1.290845        -0.125791         2.142602
 H        -2.955491         0.789308        -0.197931
 H        -0.680611         1.754279        -1.242876
 H        -0.624944         1.936137         0.509211
 H         0.925566        -2.460169         0.257375
 H        -0.648209        -3.056929         0.932176
 H        -0.467535        -3.011464        -0.808416
