19
Iteration:   856charge 0 multiplicity 1
 C        -2.852385        -1.601942         1.391844
 C        -1.695793        -0.651945         1.249940
 C        -2.027110         0.390417         0.050748
 C        -0.737283         1.288135        -0.160205
 C         0.281555         0.063791        -0.050647
 O         1.487214        -0.048425         0.037657
 C        -0.734139        -1.209988         0.209464
 C        -0.124178        -2.541116         0.224895
 O        -1.685739        -0.824595        -0.856781
 H        -2.533102        -2.660533         1.607640
 H        -3.413567        -1.249720         2.290195
 H        -3.409072        -1.693624         0.423249
 H        -1.317554        -0.225238         2.243466
 H        -3.077983         0.835736        -0.220324
 H        -0.710232         1.864181        -1.077111
 H        -0.500220         1.929551         0.777258
 H        -0.149288        -2.908510         1.284905
 H        -0.717871        -3.304914        -0.328840
 H         0.905240        -2.507028        -0.162721
