19
Iteration:  3441charge 0 multiplicity 1
 C        -2.978142        -1.483880         1.413904
 C        -1.749318        -0.599171         1.285916
 C        -1.994144         0.344509         0.064416
 C        -0.743893         1.158454        -0.063121
 C         0.328700        -0.047031         0.028845
 O         1.492619         0.063554         0.013607
 C        -0.707568        -1.187343         0.232762
 C        -0.089662        -2.599162         0.081850
 O        -1.640838        -0.817219        -0.885295
 H        -3.370926        -1.987497         0.527648
 H        -3.029402        -2.091627         2.353327
 H        -3.907725        -0.839015         1.603514
 H        -1.316833        -0.224104         2.237596
 H        -3.081124         0.600413        -0.081540
 H        -0.493625         1.614668        -1.074690
 H        -0.201205         1.947896         0.639945
 H         0.933090        -2.809015         0.431973
 H        -0.663184        -3.408965         0.502166
 H        -0.058684        -2.818391        -0.999459
