19
Iteration:  2391
 C        -3.059368        -1.419071         1.471109
 C        -1.729765        -0.737322         1.170965
 C        -2.030062         0.239966         0.144435
 C        -0.701325         1.126817        -0.059193
 C         0.308930         0.025556         0.090176
 O         1.462585         0.158942        -0.085317
 C        -0.635658        -1.195656         0.194683
 C        -0.169956        -2.632557         0.102973
 O        -1.514588        -0.771491        -0.849747
 H        -3.092869        -2.365448         0.938026
 H        -3.266620        -1.646108         2.569239
 H        -3.883951        -0.822699         1.067703
 H        -1.349423        -0.519118         2.155887
 H        -3.056943         0.712323        -0.094211
 H        -0.764793         1.565840        -1.047042
 H        -0.300591         1.939149         0.610040
 H         0.742973        -2.830752         0.711476
 H        -1.048208        -3.259470         0.330396
 H         0.294696        -2.900597        -0.936053
