19
Iteration:  3967charge 0 multiplicity 1
 C        -2.961853        -1.561871         1.564668
 C        -1.783858        -0.688036         1.212595
 C        -1.963639         0.287889         0.003265
 C        -0.674635         1.172605        -0.097774
 C         0.374097         0.105727         0.000254
 O         1.536090         0.092087         0.112898
 C        -0.679012        -1.226061         0.183548
 C        -0.266765        -2.619621         0.049815
 O        -1.639918        -0.766085        -0.913634
 H        -3.332968        -2.112244         0.659421
 H        -2.683700        -2.409423         2.238395
 H        -3.765008        -0.946383         2.051840
 H        -1.184287        -0.192507         2.138953
 H        -2.923520         0.926420        -0.003850
 H        -0.748877         1.715381        -1.061852
 H        -0.622999         2.050221         0.631567
 H         0.712392        -2.782242         0.537002
 H        -1.006797        -3.395759         0.402194
 H        -0.080641        -2.754438        -1.051794
