19
Iteration:    45
 C        -2.936599        -1.560896         1.549793
 C        -1.708829        -0.690528         1.284735
 C        -2.012995         0.271082         0.031950
 C        -0.721599         1.137607        -0.276458
 C         0.273458         0.069474        -0.010490
 O         1.497602         0.154395         0.270065
 C        -0.619081        -1.183525         0.154325
 C        -0.198006        -2.580215         0.028262
 O        -1.625941        -0.789243        -0.930366
 H        -2.671477        -2.428294         2.144240
 H        -3.625747        -1.085051         2.256170
 H        -3.500338        -1.914811         0.681994
 H        -1.284526        -0.315723         2.212669
 H        -3.012916         0.649037        -0.195067
 H        -0.779380         1.417416        -1.281620
 H        -0.505695         1.970388         0.344435
 H         0.833266        -2.623487         0.387771
 H        -0.865066        -3.240325         0.619951
 H        -0.216920        -2.860618        -1.019715
