19
Iteration:   642charge 0 multiplicity 1
 C        -2.794986        -1.557025         1.868194
 C        -1.822378        -0.640530         1.080103
 C        -1.989187         0.363033        -0.167046
 C        -0.732530         1.270298        -0.205438
 C         0.188963         0.054382         0.145936
 O         1.401826        -0.011449         0.257634
 C        -0.779011        -1.209466         0.124206
 C        -0.085379        -2.701641         0.060228
 O        -1.554291        -0.761957        -1.061180
 H        -2.271148        -2.418128         2.176693
 H        -3.213573        -0.998982         2.695159
 H        -3.541180        -1.877696         1.161442
 H        -1.321051        -0.098401         1.883047
 H        -2.950976         0.777620        -0.472268
 H        -0.506802         1.639302        -1.300423
 H        -0.717545         2.085795         0.554040
 H         0.603181        -2.748853         0.946231
 H        -0.739334        -3.540362        -0.112058
 H         0.495241        -2.435279        -0.823978
