19
Iteration:  4707charge 0 multiplicity 1
 C        -2.997236        -1.666923         1.533001
 C        -1.827121        -0.640829         1.233528
 C        -1.997081         0.422252         0.030673
 C        -0.635981         1.292095        -0.056598
 C         0.267326        -0.001126         0.073085
 O         1.508943        -0.042393        -0.012335
 C        -0.703431        -1.153244         0.214602
 C        -0.159335        -2.590782         0.084255
 O        -1.562782        -0.746211        -0.945623
 H        -3.201002        -2.459645         0.789143
 H        -3.011201        -2.168485         2.498122
 H        -3.899874        -1.042073         1.519933
 H        -1.345103        -0.234635         2.184007
 H        -2.945535         0.789791        -0.378604
 H        -0.585116         1.747810        -1.115037
 H        -0.286783         1.858070         0.860288
 H         0.741567        -2.700169         0.728623
 H        -0.859422        -3.335335         0.532642
 H         0.120733        -2.810873        -0.919245
