19
Iteration:    56charge 0 multiplicity 1
 C        -2.903461        -1.564418         1.637541
 C        -1.712404        -0.755858         1.114052
 C        -2.037364         0.320402         0.028044
 C        -0.765030         1.228681        -0.269717
 C         0.305160         0.016515         0.106207
 O         1.472652         0.121607         0.261438
 C        -0.757907        -1.191616         0.085721
 C        -0.164326        -2.601342         0.051751
 O        -1.554087        -0.762943        -0.934495
 H        -2.484918        -2.324473         2.266734
 H        -3.388446        -0.772672         2.198322
 H        -3.594626        -2.008663         0.927376
 H        -1.248229        -0.419613         2.033420
 H        -3.061074         0.670765        -0.126540
 H        -0.802226         1.489260        -1.278242
 H        -0.545997         2.117390         0.232315
 H         0.847846        -2.565487         0.473238
 H        -0.678292        -3.370318         0.670024
 H        -0.086561        -3.017941        -0.941880
