19
Iteration:  1296charge 0 multiplicity 1
 C        -2.787669        -1.649471         1.623495
 C        -1.733691        -0.606985         1.161752
 C        -2.020868         0.345225         0.026599
 C        -0.761086         1.236033        -0.076261
 C         0.276772        -0.009757         0.058902
 O         1.434417        -0.146103         0.092264
 C        -0.746378        -1.122912         0.120395
 C        -0.122725        -2.498843         0.124470
 O        -1.646858        -0.698400        -1.050528
 H        -2.521783        -2.527078         2.228171
 H        -3.504268        -1.147106         2.287038
 H        -3.184471        -2.019243         0.679002
 H        -1.157270        -0.132491         1.974349
 H        -2.927251         0.993601         0.083494
 H        -0.849235         1.714442        -0.996618
 H        -0.589316         1.920831         0.753226
 H         0.382214        -2.662704         1.080912
 H        -0.909535        -3.298149         0.192617
 H         0.633360        -2.689812        -0.705266
