19
Iteration:  4907
 C        -2.982324        -1.527242         1.453172
 C        -1.868210        -0.613237         1.232651
 C        -1.916143         0.306248         0.021793
 C        -0.681449         1.195697        -0.029598
 C         0.339802         0.035071         0.107687
 O         1.521175        -0.041382        -0.027618
 C        -0.701430        -1.160894         0.244487
 C        -0.122833        -2.547188         0.006642
 O        -1.659629        -0.830219        -0.844888
 H        -3.195066        -2.247255         0.691880
 H        -2.881333        -2.026167         2.423320
 H        -3.865271        -0.893481         1.628785
 H        -1.460234        -0.201188         2.146016
 H        -2.885237         0.830202        -0.215556
 H        -0.356152         1.828818        -0.854091
 H        -0.815802         2.093068         0.667159
 H         0.779686        -2.697394         0.577406
 H        -0.915696        -3.329055         0.214844
 H         0.233334        -2.717489        -1.034097
