19
Iteration:  1727
 C        -2.826860        -1.563567         1.635619
 C        -1.727065        -0.645348         1.268479
 C        -1.966800         0.339488         0.075802
 C        -0.690685         1.156253        -0.158653
 C         0.327007         0.073400        -0.009757
 O         1.512345         0.123451         0.143901
 C        -0.739897        -1.216931         0.107716
 C        -0.299285        -2.640057         0.028164
 O        -1.684087        -0.780139        -0.961629
 H        -2.530045        -2.226082         2.503238
 H        -3.786678        -1.020233         1.793365
 H        -3.017926        -2.265715         0.787083
 H        -1.030553        -0.297639         2.118031
 H        -2.896589         0.812889         0.032130
 H        -0.712965         1.382765        -1.260008
 H        -0.498202         1.998197         0.453077
 H        -0.134502        -2.928839         1.115115
 H        -0.958131        -3.442102        -0.460071
 H         0.624963        -2.577539        -0.639744
