19
Iteration:  2368charge 0 multiplicity 1
 C        -3.087531        -1.589923         1.554541
 C        -1.800379        -0.643493         1.267562
 C        -1.955587         0.272636         0.026081
 C        -0.654514         1.228354        -0.075799
 C         0.353795         0.037626         0.044825
 O         1.532079         0.022529        -0.034227
 C        -0.742869        -1.160939         0.202532
 C        -0.089994        -2.590188         0.094321
 O        -1.634741        -0.760244        -0.918654
 H        -2.915704        -2.638046         1.211473
 H        -3.138798        -1.671952         2.701763
 H        -4.029209        -1.172231         1.129703
 H        -1.507686        -0.325219         2.283108
 H        -2.811117         0.930056        -0.240543
 H        -0.633706         1.738726        -1.080327
 H        -0.844883         1.994069         0.664571
 H         0.822553        -2.766657         0.737709
 H        -0.826267        -3.386787         0.123590
 H         0.485099        -2.585818        -0.929850
