19
Iteration:  1019charge 0 multiplicity 1
 C        -2.759321        -1.543840         1.535519
 C        -1.771793        -0.523884         1.132603
 C        -1.960578         0.376493        -0.106215
 C        -0.675145         1.211437        -0.047793
 C         0.212383         0.021515         0.028638
 O         1.418544        -0.088798         0.218112
 C        -0.789862        -1.227344         0.113619
 C        -0.033611        -2.542588         0.085078
 O        -1.757381        -0.832320        -0.931982
 H        -2.226563        -2.409396         1.935135
 H        -3.309459        -1.266890         2.424540
 H        -3.446765        -1.982101         0.812200
 H        -1.458749        -0.053408         2.055767
 H        -2.933824         1.010209        -0.278018
 H        -0.478932         1.874654        -0.896476
 H        -0.572060         1.863487         0.940669
 H         1.082510        -2.297889         0.157021
 H        -0.288105        -3.222476         0.910573
 H        -0.391996        -3.083162        -0.813996
