19
Iteration:  1596
 C        -2.890418        -1.531352         1.483694
 C        -1.587616        -0.629458         1.255849
 C        -2.007955         0.355392         0.066394
 C        -0.796528         1.187561        -0.057244
 C         0.313950         0.063523         0.061183
 O         1.469515         0.056604         0.014835
 C        -0.721794        -1.241117         0.134628
 C        -0.258617        -2.651374         0.048075
 O        -1.607767        -0.803879        -0.898340
 H        -2.769796        -2.144905         2.448138
 H        -3.737512        -0.801728         1.573701
 H        -2.919035        -2.256593         0.636466
 H        -1.201589        -0.061477         2.216472
 H        -2.958382         0.757332        -0.070771
 H        -0.507086         1.910989        -0.928121
 H        -0.727693         1.856674         0.805550
 H         0.818542        -2.706399         0.432868
 H        -0.999619        -3.121614         0.801386
 H        -0.167469        -3.153714        -0.968084
