19
Iteration:   728charge 0 multiplicity 1
 C        -2.906353        -1.614504         1.536710
 C        -1.821549        -0.690331         1.215500
 C        -1.971047         0.345480         0.010322
 C        -0.685862         1.139369        -0.232543
 C         0.330127        -0.046885         0.061542
 O         1.534933         0.060679         0.182272
 C        -0.690128        -1.132370         0.235002
 C        -0.169794        -2.437515         0.084962
 O        -1.724728        -0.793176        -0.925759
 H        -2.570326        -2.400056         2.193034
 H        -3.845292        -1.195139         1.909835
 H        -3.213917        -2.052522         0.569624
 H        -1.269157        -0.443240         2.114503
 H        -2.923741         0.843566        -0.281121
 H        -0.683051         1.477944        -1.231968
 H        -0.490907         2.086382         0.341658
 H         0.892347        -2.456296         0.419847
 H        -0.615565        -3.251006         0.606643
 H        -0.041456        -2.685622        -0.950809
