19
Iteration:  1922charge 0 multiplicity 1
 C        -2.894210        -1.531491         1.592379
 C        -1.718745        -0.622347         1.190027
 C        -2.006298         0.325291        -0.044356
 C        -0.724739         1.175687        -0.032317
 C         0.294882        -0.023355         0.044305
 O         1.481650        -0.019131         0.040246
 C        -0.697507        -1.231940         0.090199
 C        -0.128089        -2.530450         0.076468
 O        -1.686891        -0.767005        -0.899404
 H        -2.456755        -2.265749         2.329754
 H        -3.567631        -0.947928         2.228118
 H        -3.346086        -2.134840         0.765825
 H        -1.509508         0.027391         2.038347
 H        -3.024255         0.855005        -0.289686
 H        -0.626330         2.089846        -0.791924
 H        -0.526324         1.619617         0.960957
 H         0.838384        -2.407122         0.546879
 H        -0.797498        -3.188603         0.646270
 H         0.024675        -2.850148        -0.969297
