19
Iteration:  1376charge 0 multiplicity 1
 C        -2.970362        -1.547013         1.557466
 C        -1.660203        -0.628265         1.290448
 C        -2.022966         0.315170         0.089299
 C        -0.753134         1.265507        -0.101101
 C         0.283374         0.011533         0.052440
 O         1.499173         0.035486         0.087252
 C        -0.662444        -1.167417         0.136538
 C        -0.165312        -2.605043         0.010399
 O        -1.632927        -0.836678        -0.943577
 H        -2.672445        -2.255814         2.355383
 H        -3.790604        -0.834113         1.853053
 H        -3.344529        -2.038854         0.618885
 H        -1.059626        -0.372405         2.163706
 H        -3.024328         0.581982        -0.073745
 H        -0.724670         1.761660        -1.157960
 H        -0.450474         2.190733         0.463977
 H         0.876676        -2.757661         0.423963
 H        -0.849738        -3.346056         0.405631
 H        -0.176659        -2.882962        -1.048061
