19
Iteration:   387
 C        -2.791913        -1.537540         1.809663
 C        -1.678732        -0.631441         1.144768
 C        -2.051292         0.317809        -0.094110
 C        -0.765868         1.165669        -0.185529
 C         0.227811        -0.071059         0.089453
 O         1.404982         0.085977         0.323816
 C        -0.773891        -1.227076         0.001882
 C        -0.084461        -2.624288         0.064290
 O        -1.622928        -0.691313        -1.111256
 H        -2.512802        -2.034662         2.741602
 H        -3.688109        -1.013735         2.097336
 H        -3.169684        -2.357310         1.182414
 H        -1.030114        -0.059862         1.822875
 H        -3.115170         0.889608        -0.159713
 H        -0.558044         1.395389        -1.198684
 H        -0.440400         2.120127         0.388368
 H         0.467662        -2.588895         1.037070
 H        -0.820214        -3.433946         0.209798
 H         0.597228        -2.971489        -0.766001
