19
Iteration:  3786charge 0 multiplicity 1
 C        -2.857027        -1.670624         1.586995
 C        -1.824220        -0.707958         1.165914
 C        -1.950436         0.380800         0.010518
 C        -0.705459         1.253150        -0.062236
 C         0.253808         0.067805         0.029938
 O         1.506795        -0.069609        -0.004068
 C        -0.761481        -1.229188         0.147675
 C        -0.239735        -2.542235         0.163414
 O        -1.540127        -0.657614        -0.959739
 H        -3.311923        -2.503460         0.934933
 H        -2.541718        -2.165748         2.562451
 H        -3.836619        -1.122016         1.717756
 H        -1.461536        -0.275310         2.186376
 H        -2.909463         0.835404        -0.125606
 H        -0.516420         1.898534        -0.929204
 H        -0.574978         1.856496         0.809727
 H         0.715863        -2.436426         0.757518
 H        -0.989674        -3.222979         0.525532
 H         0.206882        -2.887232        -0.808721
