19
Iteration:  3711
 C        -3.048810        -1.481996         1.459051
 C        -1.737857        -0.673218         1.248674
 C        -1.977588         0.261329         0.083963
 C        -0.713330         1.190891        -0.148307
 C         0.283045         0.033174         0.103369
 O         1.544482         0.021214        -0.014843
 C        -0.634327        -1.212353         0.225144
 C        -0.160971        -2.592743         0.036386
 O        -1.606157        -0.740108        -0.844596
 H        -3.428035        -2.116375         0.614057
 H        -2.822988        -2.272214         2.248589
 H        -3.888161        -0.865985         1.906422
 H        -1.314884        -0.302925         2.182864
 H        -2.970182         0.624114        -0.101691
 H        -0.937129         1.717125        -1.110385
 H        -0.537900         1.998249         0.544551
 H         0.689594        -2.591671         0.873583
 H        -1.004014        -3.272505         0.254351
 H         0.315411        -2.755014        -1.033860
