19
Iteration:  3146
 C        -3.020345        -1.516322         1.566429
 C        -1.735183        -0.691308         1.181823
 C        -2.034738         0.333709        -0.004123
 C        -0.661234         1.205425        -0.101994
 C         0.278313         0.038789         0.105051
 O         1.455142        -0.042048         0.043887
 C        -0.747019        -1.189229         0.162304
 C        -0.067166        -2.521013         0.114366
 O        -1.554954        -0.784822        -0.947093
 H        -3.555871        -1.901151         0.666014
 H        -2.854159        -2.396816         2.194996
 H        -3.622690        -0.814383         2.195381
 H        -1.516366        -0.146285         2.130258
 H        -3.008556         0.828636        -0.232514
 H        -0.415288         1.483325        -1.067632
 H        -0.726407         1.888392         0.645345
 H         1.013876        -2.422697         0.620330
 H        -0.649169        -3.278009         0.683160
 H         0.012322        -2.972560        -0.947723
