19
Iteration:  2584charge 0 multiplicity 1
 C        -2.808104        -1.627877         1.616811
 C        -1.822277        -0.575444         1.096721
 C        -1.936792         0.361763        -0.093699
 C        -0.688051         1.220527        -0.058612
 C         0.249327         0.018833         0.078559
 O         1.493988        -0.058653         0.161392
 C        -0.760610        -1.175239         0.100181
 C        -0.129258        -2.599052         0.111537
 O        -1.736913        -0.732394        -0.948505
 H        -2.770033        -2.415774         0.860693
 H        -2.485445        -1.899138         2.641176
 H        -3.803706        -1.154645         1.539668
 H        -1.346694        -0.145266         2.052933
 H        -2.802073         0.985349        -0.264187
 H        -0.458383         1.932589        -1.013343
 H        -0.727930         1.772656         0.938901
 H         0.630612        -2.646809         0.925804
 H        -0.687295        -3.514152         0.330580
 H         0.308712        -2.779566        -0.913550
