19
Iteration:  2962
 C        -2.999910        -1.510803         1.656450
 C        -1.900396        -0.620932         1.157205
 C        -2.075288         0.291419        -0.053061
 C        -0.643244         1.181536        -0.095178
 C         0.296230         0.017045         0.184870
 O         1.529616         0.007409         0.013441
 C        -0.730563        -1.224332         0.170504
 C        -0.069934        -2.616384         0.070019
 O        -1.520437        -0.745641        -0.987448
 H        -3.346565        -2.268987         0.962049
 H        -2.848892        -1.950992         2.622051
 H        -3.834365        -0.815513         1.894111
 H        -1.441246        -0.096476         1.986617
 H        -3.124184         0.641416        -0.231914
 H        -0.408374         1.786598        -1.006857
 H        -0.599887         2.019197         0.796022
 H         0.802916        -2.708385         0.681903
 H        -0.801124        -3.231887         0.471482
 H         0.166754        -2.815433        -0.961801
