19
Iteration:  4332charge 0 multiplicity 1
 C        -2.862379        -1.504969         1.472888
 C        -1.700547        -0.569633         1.148537
 C        -1.958435         0.329022        -0.048820
 C        -0.700298         1.133974         0.055675
 C         0.289211         0.042900         0.102933
 O         1.545813         0.022864        -0.004504
 C        -0.724412        -1.192847         0.119712
 C        -0.129425        -2.641047         0.140906
 O        -1.771652        -0.787930        -0.875854
 H        -3.576289        -1.726904         0.605614
 H        -2.692587        -2.549487         1.951813
 H        -3.588116        -0.893448         2.215779
 H        -1.306220        -0.188239         2.104811
 H        -2.927786         0.838022        -0.192060
 H        -0.641606         1.813420        -0.904976
 H        -0.874822         1.921503         0.811281
 H         0.095615        -3.136165         1.129115
 H        -0.942316        -3.388546        -0.256235
 H         0.736108        -2.656168        -0.558568
