19
Iteration:  2862charge 0 multiplicity 1
 C        -2.874688        -1.555903         1.525396
 C        -1.825263        -0.569953         1.187880
 C        -2.028678         0.393545        -0.052325
 C        -0.727228         1.204630        -0.076679
 C         0.318192        -0.005840         0.129766
 O         1.486717        -0.120789         0.093411
 C        -0.731614        -1.166642         0.196925
 C        -0.079797        -2.502958         0.127265
 O        -1.659023        -0.848667        -1.008960
 H        -3.566047        -1.652822         0.697132
 H        -2.385083        -2.487117         1.810166
 H        -3.465582        -1.221799         2.364024
 H        -1.496277         0.054847         1.999560
 H        -2.995313         0.812754        -0.195229
 H        -0.384691         1.801073        -0.896297
 H        -0.532216         2.023352         0.759107
 H         0.704948        -2.414923         0.836485
 H        -0.676813        -3.326271         0.397041
 H         0.169134        -2.687754        -0.859716
