19
Iteration:  4407
 C        -2.827961        -1.560140         1.552339
 C        -1.788420        -0.607196         1.205162
 C        -1.935922         0.339074        -0.066252
 C        -0.704994         1.183612         0.058948
 C         0.272625         0.028464         0.012759
 O         1.524314        -0.062892         0.010883
 C        -0.729034        -1.145023         0.197981
 C        -0.221532        -2.507400         0.103071
 O        -1.689581        -0.807771        -0.958298
 H        -3.013622        -2.184256         0.666066
 H        -2.607772        -2.357334         2.276387
 H        -3.819782        -1.110816         1.791626
 H        -1.370410        -0.191347         2.182876
 H        -2.809566         0.937675        -0.404248
 H        -0.471990         1.917669        -0.767582
 H        -0.560010         1.729113         0.963025
 H         0.200263        -2.820865         1.040790
 H        -0.979620        -3.326822         0.022100
 H         0.527947        -2.479494        -0.660133
