19
Iteration:  4782charge 0 multiplicity 1
 C        -2.875291        -1.605117         1.648865
 C        -1.766623        -0.656357         1.191250
 C        -2.045302         0.361678        -0.062820
 C        -0.708748         1.165977        -0.225169
 C         0.306269        -0.051310         0.051978
 O         1.522005        -0.028324         0.263857
 C        -0.713140        -1.118286         0.144663
 C        -0.212231        -2.514136         0.001655
 O        -1.596536        -0.738775        -0.930359
 H        -3.623313        -1.719311         0.912553
 H        -2.614680        -2.520682         2.023754
 H        -3.362352        -1.168480         2.485082
 H        -1.441195        -0.073576         1.983673
 H        -3.029184         0.776659        -0.085678
 H        -0.377454         1.570495        -1.244187
 H        -0.583845         2.050308         0.472521
 H         0.481965        -2.867334         0.800702
 H        -0.948263        -3.320205         0.097642
 H         0.104730        -2.483444        -1.057455
