19
Iteration:  4382
 C        -2.857882        -1.642567         1.570083
 C        -1.789846        -0.623901         1.174241
 C        -2.007129         0.412773        -0.019868
 C        -0.732858         1.242193        -0.045466
 C         0.329764        -0.017344         0.128288
 O         1.484867         0.020587        -0.060221
 C        -0.674933        -1.177758         0.219140
 C        -0.286493        -2.662046         0.099185
 O        -1.547977        -0.679097        -0.917026
 H        -3.137477        -2.343702         0.826143
 H        -2.625122        -2.291610         2.340624
 H        -3.714832        -1.158354         1.776269
 H        -1.459259        -0.244380         2.144683
 H        -3.030763         0.715409        -0.228008
 H        -0.404958         1.539973        -0.969076
 H        -0.404269         2.094664         0.521954
 H        -0.188471        -3.093327         1.078755
 H        -1.124762        -3.258697        -0.138767
 H         0.566392        -2.830315        -0.502098
