19
Iteration:  3285charge 0 multiplicity 1
 C        -2.991649        -1.462167         1.549230
 C        -1.766836        -0.640869         1.282528
 C        -2.004570         0.270842         0.060978
 C        -0.691621         1.161458        -0.181196
 C         0.252613         0.027163         0.048591
 O         1.511712        -0.008348         0.166880
 C        -0.675238        -1.145632         0.142929
 C        -0.083475        -2.580129         0.001976
 O        -1.638270        -0.800954        -0.937103
 H        -3.361012        -2.096286         0.732506
 H        -2.799920        -2.203851         2.351243
 H        -3.704116        -0.782284         2.017934
 H        -1.254860        -0.129462         2.057688
 H        -2.836103         0.783309        -0.287380
 H        -0.890472         1.588081        -1.237545
 H        -0.558597         1.907587         0.695900
 H         0.658391        -2.684144         0.740360
 H        -0.817820        -3.333291         0.079283
 H         0.349823        -2.709870        -0.957393
