19
Iteration:   531
 C        -2.997380        -1.668244         1.472829
 C        -1.829758        -0.586106         1.243917
 C        -1.972702         0.385129        -0.039943
 C        -0.686538         1.238498        -0.098975
 C         0.274575         0.115882         0.084202
 O         1.480979         0.008937        -0.107680
 C        -0.649885        -1.168727         0.293752
 C        -0.097173        -2.598511         0.231527
 O        -1.569145        -0.835741        -0.898174
 H        -2.777810        -2.490655         2.125989
 H        -3.860166        -1.169839         1.899605
 H        -3.310852        -2.135147         0.562163
 H        -1.596944        -0.117923         2.206909
 H        -3.018600         0.719604        -0.376446
 H        -0.611966         1.679621        -1.063143
 H        -0.548485         2.102930         0.647691
 H         0.465164        -2.922387         1.113548
 H        -1.021794        -3.243275         0.144591
 H         0.434537        -2.845079        -0.691649
