19
Iteration:  3457charge 0 multiplicity 1
 C        -3.053104        -1.532096         1.421963
 C        -1.766457        -0.715191         1.267679
 C        -1.899393         0.346347         0.071277
 C        -0.643810         1.193666        -0.136291
 C         0.309130         0.028786         0.042065
 O         1.482411         0.069837        -0.011608
 C        -0.690670        -1.198683         0.211802
 C        -0.156921        -2.636540         0.119360
 O        -1.644389        -0.774331        -0.822503
 H        -3.280392        -1.929949         0.410721
 H        -2.672019        -2.368932         2.026993
 H        -3.905735        -0.986017         1.825755
 H        -1.410795        -0.058188         2.122153
 H        -2.770726         0.987904        -0.173830
 H        -0.750513         1.539289        -1.146661
 H        -0.601002         1.856518         0.653309
 H         0.884282        -2.449436         0.456400
 H        -0.731729        -3.301186         0.889635
 H        -0.123438        -2.893496        -0.963782
