19
Iteration:  3617
 C        -2.798193        -1.629391         1.637411
 C        -1.734689        -0.631327         1.180880
 C        -1.973464         0.416007        -0.012698
 C        -0.722181         1.208521        -0.216962
 C         0.231571         0.023500         0.038849
 O         1.469388        -0.022722         0.244694
 C        -0.714623        -1.158500         0.131006
 C        -0.209495        -2.607138         0.037882
 O        -1.680258        -0.747394        -0.935397
 H        -3.201039        -2.210481         0.824409
 H        -2.540258        -2.365546         2.384358
 H        -3.580905        -0.978014         2.069481
 H        -1.058802        -0.193715         1.991233
 H        -2.948824         0.908430        -0.312387
 H        -0.706687         1.659978        -1.251608
 H        -0.090475         2.006540         0.383924
 H         0.194334        -2.859553         0.974646
 H        -0.999808        -3.325961        -0.192479
 H         0.583013        -2.816773        -0.646333
