19
Iteration:  4968
 C        -2.961956        -1.619321         1.447459
 C        -1.832268        -0.666317         1.164448
 C        -2.018275         0.337706        -0.021545
 C        -0.616767         1.245754         0.025510
 C         0.339951         0.035103         0.165693
 O         1.516113        -0.033490        -0.144696
 C        -0.703155        -1.135144         0.177222
 C        -0.153685        -2.554578         0.270346
 O        -1.655917        -0.728820        -0.970906
 H        -3.647647        -1.644334         0.543589
 H        -2.387584        -2.540280         1.565405
 H        -3.525374        -1.245096         2.326936
 H        -1.418932        -0.480531         2.192102
 H        -2.962469         0.894987        -0.082568
 H        -0.344811         1.768956        -0.878023
 H        -0.646331         1.599777         1.006827
 H         0.782582        -2.705012         0.845723
 H        -0.846216        -3.151942         0.931885
 H        -0.181883        -3.052091        -0.638916
