19
Iteration:  2387
 C        -3.073236        -1.453570         1.510842
 C        -1.759412        -0.733980         1.177686
 C        -2.030828         0.289329         0.124017
 C        -0.733046         1.122775        -0.051534
 C         0.331528         0.022556         0.090713
 O         1.491673         0.143155        -0.082422
 C        -0.627600        -1.221316         0.185385
 C        -0.163378        -2.600852         0.077794
 O        -1.518618        -0.769248        -0.852453
 H        -3.102253        -2.447935         0.927189
 H        -3.405323        -1.649217         2.562039
 H        -3.907284        -0.843007         1.052797
 H        -1.293146        -0.416535         2.219468
 H        -2.996974         0.609414        -0.064026
 H        -0.745069         1.600677        -1.109558
 H        -0.211943         1.893818         0.489816
 H         0.704525        -2.720846         0.768277
 H        -0.987002        -3.250996         0.326871
 H         0.282929        -2.892331        -0.867478
