19
Iteration:  2636charge 0 multiplicity 1
 C        -3.009228        -1.662173         1.447686
 C        -1.744774        -0.662097         1.253955
 C        -1.994531         0.435143        -0.021266
 C        -0.798369         1.297470        -0.130191
 C         0.343968        -0.038321         0.078382
 O         1.553629         0.010662         0.027744
 C        -0.720403        -1.182660         0.220172
 C        -0.141592        -2.610192         0.178901
 O        -1.602127        -0.728738        -0.906158
 H        -3.414276        -1.829179         0.488896
 H        -2.644457        -2.549320         1.912952
 H        -3.700646        -1.120446         2.059741
 H        -1.396094        -0.318860         2.189197
 H        -2.958975         0.836004        -0.234168
 H        -0.576398         1.502948        -1.157468
 H        -0.532787         2.032796         0.535598
 H         0.861023        -2.675875         0.702252
 H        -0.714774        -3.284584         0.771129
 H        -0.135269        -3.064325        -0.819117
