19
Iteration:  4311
 C        -2.914509        -1.485838         1.551348
 C        -1.726832        -0.636157         1.226502
 C        -2.016150         0.393215         0.029157
 C        -0.613548         1.211300        -0.051673
 C         0.219136        -0.058225         0.011040
 O         1.438759        -0.037733         0.066368
 C        -0.726821        -1.216585         0.169742
 C        -0.072448        -2.539188         0.061186
 O        -1.670077        -0.799623        -0.961583
 H        -3.488545        -1.741080         0.614347
 H        -2.644029        -2.551421         1.828962
 H        -3.685904        -1.079434         2.331662
 H        -1.293689        -0.269143         2.160631
 H        -3.020989         0.823029        -0.183797
 H        -0.633066         1.903714        -0.972820
 H        -0.401972         1.855702         0.859519
 H         0.319816        -2.748538         1.082413
 H        -0.755288        -3.441077         0.066068
 H         0.745799        -2.417770        -0.709795
