19
Iteration:   776charge 0 multiplicity 1
 C        -2.882260        -1.529955         1.603431
 C        -1.746628        -0.588861         1.115401
 C        -2.029074         0.285888        -0.058740
 C        -0.772898         1.132373         0.039037
 C         0.240737        -0.011228         0.150184
 O         1.454256         0.001902        -0.043602
 C        -0.722013        -1.237706         0.154678
 C        -0.103286        -2.566831         0.173547
 O        -1.552807        -0.698595        -1.028278
 H        -2.816552        -1.771075         2.658557
 H        -3.791817        -0.961272         1.531643
 H        -3.127831        -2.416017         1.066605
 H        -1.242803        -0.150853         1.962443
 H        -2.990937         0.682644        -0.286630
 H        -0.497398         1.988299        -0.713961
 H        -0.896045         1.727429         0.912485
 H         0.587642        -2.615864         1.011418
 H        -0.780692        -3.440200         0.305208
 H         0.548347        -2.739309        -0.713992
