19
Iteration:  3976charge 0 multiplicity 1
 C        -2.959573        -1.532589         1.497473
 C        -1.687704        -0.672668         1.224248
 C        -1.972598         0.306522        -0.019437
 C        -0.713402         1.187659        -0.033463
 C         0.288949         0.041024         0.079686
 O         1.555511         0.088106         0.075864
 C        -0.711464        -1.189539         0.203401
 C        -0.183079        -2.616959         0.032022
 O        -1.684042        -0.811173        -0.891864
 H        -3.430802        -1.817090         0.555228
 H        -2.571132        -2.313398         2.127197
 H        -3.627312        -0.836028         2.046980
 H        -1.265420        -0.293769         2.264403
 H        -2.883795         0.885869        -0.385366
 H        -0.737020         1.487065        -1.040764
 H        -0.518176         2.043408         0.589430
 H         0.746817        -2.854015         0.499896
 H        -1.061653        -3.227381         0.353302
 H        -0.095900        -2.826143        -1.031173
