19
Iteration:  3715
 C        -3.045890        -1.492116         1.447139
 C        -1.743605        -0.712226         1.285205
 C        -1.969986         0.302011         0.088030
 C        -0.676805         1.197793        -0.143991
 C         0.274156         0.048603         0.085865
 O         1.522848         0.014542        -0.017599
 C        -0.634746        -1.189811         0.229875
 C        -0.151326        -2.574178         0.021416
 O        -1.616520        -0.784858        -0.853584
 H        -3.366267        -2.102404         0.645568
 H        -2.865994        -2.167137         2.246996
 H        -3.866835        -0.857304         1.760514
 H        -1.379813        -0.109463         2.254014
 H        -2.993765         0.740993        -0.100000
 H        -0.923443         1.752493        -1.085282
 H        -0.602862         2.033649         0.639507
 H         0.702091        -2.754207         0.734213
 H        -0.918907        -3.332803         0.285489
 H         0.329257        -2.880065        -0.878771
