19
Iteration:  3608
 C        -2.846262        -1.548690         1.611290
 C        -1.719690        -0.639924         1.230346
 C        -1.953749         0.349564         0.040610
 C        -0.665329         1.195962        -0.273436
 C         0.308612         0.012165         0.021485
 O         1.462730         0.020981         0.249910
 C        -0.733904        -1.205549         0.100684
 C        -0.187821        -2.610029         0.024621
 O        -1.710014        -0.760712        -0.938679
 H        -3.065656        -2.248071         0.778436
 H        -2.447805        -2.167642         2.475292
 H        -3.836093        -1.201483         1.970067
 H        -1.416772        -0.075385         2.106871
 H        -3.002955         0.795505         0.040449
 H        -0.566185         1.704758        -1.201078
 H        -0.486501         1.993445         0.570592
 H         0.221169        -2.860664         0.996420
 H        -1.112516        -3.206552        -0.231068
 H         0.477015        -2.578947        -0.825628
