19
Iteration:  1924
 C        -2.878098        -1.540996         1.601243
 C        -1.731728        -0.632405         1.169003
 C        -1.994039         0.322920        -0.044909
 C        -0.718275         1.173319        -0.042609
 C         0.271440        -0.013982         0.056397
 O         1.498497        -0.038337         0.044305
 C        -0.715042        -1.207266         0.099875
 C        -0.120377        -2.501799         0.082401
 O        -1.706187        -0.777045        -0.910282
 H        -2.493006        -2.218241         2.409828
 H        -3.603352        -0.911011         2.200657
 H        -3.326258        -2.190877         0.793540
 H        -1.459552        -0.020816         2.017618
 H        -2.913320         0.805927        -0.259994
 H        -0.621442         2.054390        -0.715350
 H        -0.491855         1.607632         0.943580
 H         0.873032        -2.401276         0.562349
 H        -0.822080        -3.159381         0.619033
 H         0.041359        -2.762168        -1.053709
