19
Iteration:  3848charge 0 multiplicity 1
 C        -2.951751        -1.490615         1.568463
 C        -1.735297        -0.636029         1.248487
 C        -1.962351         0.263184         0.068665
 C        -0.674839         1.192552        -0.199430
 C         0.293430         0.025308        -0.010495
 O         1.481152         0.069746         0.195933
 C        -0.635898        -1.188092         0.148816
 C        -0.149056        -2.607643        -0.028646
 O        -1.713831        -0.794125        -0.891546
 H        -3.570203        -1.406671         0.682481
 H        -2.715133        -2.520541         1.716270
 H        -3.347057        -1.030975         2.424579
 H        -1.145564        -0.420066         2.117671
 H        -3.017896         0.633878         0.008358
 H        -0.610176         1.632936        -1.201842
 H        -0.597294         1.985387         0.634905
 H         0.238413        -2.935442         0.917799
 H        -1.009600        -3.294907        -0.103924
 H         0.516302        -2.793890        -0.887075
