19
Iteration:  1321charge 0 multiplicity 1
 C        -2.900315        -1.588955         1.594089
 C        -1.748056        -0.647207         1.173870
 C        -1.955432         0.324781         0.010899
 C        -0.714782         1.175595        -0.073166
 C         0.279847         0.073143         0.051263
 O         1.507027         0.095859         0.078647
 C        -0.711592        -1.173967         0.127873
 C        -0.263232        -2.659824         0.052385
 O        -1.609567        -0.749834        -0.941536
 H        -2.489173        -2.520345         2.052393
 H        -3.261386        -1.184271         2.555421
 H        -3.640229        -1.892516         0.816174
 H        -1.163376        -0.409853         2.042945
 H        -2.795427         0.896947        -0.218210
 H        -0.837255         1.620402        -1.140583
 H        -0.535201         1.998498         0.689400
 H         0.552922        -2.713124         0.830906
 H        -0.942297        -3.335830         0.526847
 H         0.144493        -3.071189        -0.875198
