19
Iteration:   696
 C        -2.862357        -1.505726         1.472381
 C        -1.663442        -0.616707         1.244610
 C        -1.943380         0.350590         0.008063
 C        -0.731607         1.223696        -0.287653
 C         0.232891         0.038405         0.048298
 O         1.420132         0.165660         0.287831
 C        -0.605737        -1.226311         0.121596
 C        -0.171660        -2.752732         0.046570
 O        -1.705322        -0.839427        -0.834549
 H        -2.590318        -2.534360         1.519533
 H        -3.427507        -1.220731         2.370829
 H        -3.453103        -1.448769         0.563038
 H        -1.149669        -0.424881         2.165905
 H        -2.958565         0.727947        -0.225346
 H        -0.706127         1.557943        -1.420776
 H        -0.631747         2.086802         0.436327
 H         0.797721        -2.714520         0.606876
 H        -0.955933        -3.259489         0.589768
 H        -0.189157        -3.158169        -0.968366
