19
Iteration:   600
 C        -2.838442        -1.550061         1.634155
 C        -1.766939        -0.557318         1.169072
 C        -2.022914         0.272168        -0.113447
 C        -0.762048         1.264197        -0.109129
 C         0.306393         0.088833         0.095338
 O         1.534275        -0.025193         0.148328
 C        -0.740405        -1.151934         0.123195
 C        -0.107236        -2.626803         0.109979
 O        -1.717425        -0.853379        -0.978140
 H        -2.538602        -1.945057         2.613695
 H        -3.785881        -1.031856         1.795957
 H        -2.863008        -2.454314         1.003575
 H        -1.236310         0.010902         1.950952
 H        -2.917268         0.772730        -0.333840
 H        -0.640942         1.950052        -1.028554
 H        -0.772027         1.875448         0.712723
 H         0.075153        -2.888202         1.188867
 H        -0.790136        -3.337629        -0.333038
 H         0.804862        -2.804661        -0.481028
