19
Iteration:  3189
 C        -2.849457        -1.588299         1.338548
 C        -1.759564        -0.611457         1.262385
 C        -1.999599         0.414614        -0.003088
 C        -0.681481         1.180074        -0.094540
 C         0.265537         0.003545         0.079522
 O         1.517868         0.090318        -0.000141
 C        -0.673994        -1.167806         0.182756
 C        -0.253863        -2.602390         0.218935
 O        -1.638608        -0.853004        -0.817642
 H        -3.320075        -1.741775         0.323985
 H        -2.689435        -2.603539         1.737879
 H        -3.717448        -1.181631         1.946540
 H        -1.244769        -0.345572         2.250186
 H        -2.932640         0.801570        -0.377190
 H        -0.537511         1.603330        -1.107033
 H        -0.430552         1.898823         0.650355
 H         0.888209        -2.578148         0.441566
 H        -0.860999        -3.181908         0.923850
 H        -0.561379        -3.042941        -0.789726
