19
Iteration:   423
 C        -2.858973        -1.587174         1.517913
 C        -1.645275        -0.538723         1.232224
 C        -2.020765         0.374494        -0.093978
 C        -0.726561         1.285910        -0.265983
 C         0.328987         0.095624         0.053197
 O         1.513602         0.108122         0.247574
 C        -0.699460        -1.215683         0.235054
 C        -0.225587        -2.630299        -0.042337
 O        -1.693571        -1.023149        -0.765822
 H        -2.600437        -2.209859         2.378865
 H        -3.692307        -0.854888         1.569689
 H        -2.909251        -2.080132         0.548441
 H        -1.271973        -0.082602         2.183586
 H        -3.152568         0.544327        -0.312009
 H        -0.688873         1.717841        -1.209795
 H        -0.845012         2.068157         0.535398
 H         0.464833        -3.032931         0.685193
 H        -1.239563        -3.171251         0.063000
 H         0.220067        -2.709618        -1.044675
