19
Iteration:  4544charge 0 multiplicity 1
 C        -2.821463        -1.611952         1.715220
 C        -1.761717        -0.689045         1.143599
 C        -1.939226         0.376772        -0.047307
 C        -0.675171         1.253663        -0.126589
 C         0.240867        -0.030436         0.020818
 O         1.459169        -0.039357         0.251456
 C        -0.751084        -1.218380         0.046952
 C        -0.191356        -2.626632         0.051170
 O        -1.675984        -0.621239        -1.018169
 H        -3.038438        -2.506931         1.042413
 H        -2.338407        -2.098416         2.601668
 H        -3.679637        -0.876868         1.873192
 H        -1.312049        -0.130350         1.971349
 H        -2.881343         0.855148        -0.240647
 H        -0.555827         1.795661        -1.004946
 H        -0.670084         1.933897         0.624688
 H         0.465051        -2.720088         0.948108
 H        -0.911565        -3.336415         0.354254
 H         0.405950        -2.831042        -0.827594
