19
Iteration:  4995
 C        -2.924609        -1.551021         1.402190
 C        -1.825566        -0.582777         1.272541
 C        -1.986421         0.371312         0.047028
 C        -0.686304         1.249442        -0.064184
 C         0.251029        -0.018398        -0.000778
 O         1.480888        -0.015175        -0.032328
 C        -0.693873        -1.163755         0.277036
 C        -0.182148        -2.588529         0.164871
 O        -1.549110        -0.798219        -0.874169
 H        -3.342410        -1.557221         0.430535
 H        -2.474024        -2.563092         1.531550
 H        -3.634640        -1.468558         2.234706
 H        -1.423232        -0.365118         2.236251
 H        -2.949136         0.838080        -0.272716
 H        -0.605264         1.630120        -1.116935
 H        -0.394459         1.824205         0.894554
 H         0.770959        -2.839535         0.625978
 H        -0.828664        -3.464678         0.496360
 H        -0.221728        -2.649589        -1.012314
