19
Iteration:  3109charge 0 multiplicity 1
 C        -2.904499        -1.510249         1.664397
 C        -1.781622        -0.559046         1.111668
 C        -2.067768         0.342342        -0.130271
 C        -0.704619         1.153119        -0.063024
 C         0.274971        -0.011427         0.055417
 O         1.459727        -0.048910         0.166568
 C        -0.698622        -1.190840         0.145104
 C        -0.069599        -2.605174         0.039812
 O        -1.615042        -0.794931        -0.973172
 H        -3.468825        -2.189420         0.959265
 H        -2.612664        -2.017349         2.659264
 H        -3.644709        -0.741410         1.969709
 H        -1.227010         0.021497         1.880652
 H        -3.046074         0.749692        -0.234034
 H        -0.473967         2.076944        -0.771267
 H        -0.750135         1.864294         0.907962
 H         0.587480        -2.667020         0.930426
 H        -0.850539        -3.399040         0.234838
 H         0.620778        -2.667874        -0.790394
