19
Iteration:  3294
 C        -3.007189        -1.514132         1.592353
 C        -1.674326        -0.685940         1.227566
 C        -1.995467         0.329514         0.033652
 C        -0.690635         1.156351        -0.185722
 C         0.317373         0.039264         0.024678
 O         1.483746         0.040504         0.187919
 C        -0.716443        -1.214210         0.169899
 C        -0.099553        -2.550663         0.027286
 O        -1.662150        -0.799376        -0.935713
 H        -3.431077        -1.851536         0.644228
 H        -2.934574        -2.363928         2.279312
 H        -3.768232        -0.873296         1.985360
 H        -1.329265        -0.149665         2.099080
 H        -3.005820         0.764612        -0.003242
 H        -0.644154         1.415532        -1.315777
 H        -0.317851         2.096890         0.371622
 H         0.521969        -2.891655         0.789138
 H        -1.002803        -3.174198         0.075058
 H         0.393592        -2.593611        -0.905602
