19
Iteration:   680charge 0 multiplicity 1
 C        -2.827878        -1.464247         1.498975
 C        -1.572667        -0.652893         1.174541
 C        -1.956630         0.239896        -0.016062
 C        -0.765249         1.139766        -0.195356
 C         0.300465         0.030665        -0.058269
 O         1.443973         0.169998         0.360717
 C        -0.708929        -1.160455         0.113739
 C        -0.263720        -2.555761         0.098478
 O        -1.692190        -0.932578        -0.931223
 H        -2.688669        -2.589916         1.666288
 H        -3.265695        -1.131309         2.473894
 H        -3.687830        -1.267291         0.822932
 H        -1.142106        -0.000469         1.985108
 H        -2.978629         0.690972        -0.034571
 H        -0.680031         1.744435        -1.039292
 H        -0.555103         1.863736         0.594573
 H         0.670550        -2.911466         0.479726
 H        -0.925179        -3.372915         0.474977
 H        -0.010944        -2.787808        -0.957554
