19
Iteration:  2845
 C        -2.891747        -1.433819         1.575891
 C        -1.735289        -0.524513         1.115230
 C        -1.989076         0.251053        -0.097341
 C        -0.738400         1.210679         0.005133
 C         0.255345         0.006732         0.056109
 O         1.428132        -0.084680         0.144371
 C        -0.714278        -1.160629         0.156728
 C        -0.054794        -2.581531         0.094876
 O        -1.630186        -0.815616        -0.940407
 H        -3.637504        -1.658775         0.773768
 H        -2.629560        -2.468040         1.929505
 H        -3.501212        -1.004578         2.448079
 H        -1.179066        -0.152061         2.019084
 H        -2.965042         0.715493        -0.462087
 H        -0.661200         1.794550        -0.965029
 H        -0.841116         1.726036         0.891376
 H         0.726348        -2.963783         0.864341
 H        -0.932940        -3.341489         0.033695
 H         0.502289        -2.499347        -0.949351
