19
Iteration:  2482charge 0 multiplicity 1
 C        -2.832225        -1.650936         1.561996
 C        -1.739569        -0.633112         1.135097
 C        -1.972136         0.379649         0.031027
 C        -0.744951         1.229304        -0.172416
 C         0.267616        -0.012848         0.077477
 O         1.416995        -0.127084         0.160599
 C        -0.693567        -1.138562         0.134310
 C        -0.120463        -2.514556         0.153137
 O        -1.659364        -0.710380        -0.983621
 H        -3.706810        -1.612022         0.905661
 H        -2.504711        -2.640910         1.634934
 H        -3.128630        -1.400526         2.565018
 H        -1.300819        -0.060127         1.897008
 H        -2.930032         0.870795        -0.178721
 H        -0.851126         1.691205        -1.157022
 H        -0.645076         2.154659         0.407814
 H         0.428255        -2.572170         1.130425
 H        -0.945409        -3.272613         0.101817
 H         0.712744        -2.708398        -0.462043
