19
Iteration:  2881charge 0 multiplicity 1
 C        -2.981514        -1.672861         1.495163
 C        -1.794269        -0.643890         1.187793
 C        -2.003399         0.387285        -0.043776
 C        -0.567262         1.167864        -0.152209
 C         0.287821         0.005478         0.037752
 O         1.443307        -0.046783         0.080612
 C        -0.687855        -1.161965         0.175242
 C        -0.159068        -2.493560         0.234603
 O        -1.640048        -0.696491        -0.890182
 H        -3.480924        -2.013555         0.565216
 H        -2.347135        -2.499921         1.888544
 H        -3.681719        -1.365244         2.257135
 H        -1.276156        -0.318795         2.125437
 H        -2.874622         0.933749        -0.366305
 H        -0.760944         1.640883        -1.123289
 H        -0.469992         2.063460         0.555385
 H         0.887814        -2.405527         0.659014
 H        -0.812613        -3.340795         0.728137
 H         0.057529        -2.898362        -0.824007
