19
Iteration:  4163
 C        -2.828817        -1.484583         1.563603
 C        -1.730440        -0.535932         1.141772
 C        -2.054778         0.326131        -0.029417
 C        -0.725972         1.197580        -0.039554
 C         0.253851        -0.014407         0.124130
 O         1.517259        -0.140576         0.166166
 C        -0.666096        -1.118146         0.114884
 C        -0.080191        -2.520482         0.004616
 O        -1.797777        -0.880635        -0.929576
 H        -3.626284        -1.522700         0.715360
 H        -2.529765        -2.502160         2.042433
 H        -3.487582        -0.995165         2.405141
 H        -1.182936        -0.074371         1.996936
 H        -3.028253         0.892907        -0.120823
 H        -0.441307         1.692933        -0.948632
 H        -0.502265         2.039669         0.675193
 H         0.813751        -2.525534         0.645702
 H        -0.703046        -3.390925         0.009717
 H         0.387616        -2.526693        -1.038634
