19
Iteration:  3358charge 0 multiplicity 1
 C        -2.715283        -1.615579         1.681880
 C        -1.746197        -0.605285         1.097711
 C        -1.999394         0.356962        -0.082137
 C        -0.697726         1.247484        -0.138807
 C         0.224581         0.072172         0.093720
 O         1.477868        -0.029396         0.223379
 C        -0.735260        -1.111169         0.086202
 C        -0.269898        -2.610834         0.131603
 O        -1.645597        -0.821861        -1.006009
 H        -3.184423        -1.909727         0.754046
 H        -2.369079        -2.580552         2.070862
 H        -3.370106        -1.052068         2.335096
 H        -1.097536        -0.071797         1.861269
 H        -3.051027         0.777431        -0.153590
 H        -0.451673         1.667718        -1.099035
 H        -0.623801         1.898321         0.691734
 H        -0.150694        -2.864708         1.192073
 H        -1.149734        -3.200814        -0.383678
 H         0.629537        -2.886425        -0.463784
