19
Iteration:  2979
 C        -3.024700        -1.510435         1.724846
 C        -1.784321        -0.682124         1.136915
 C        -1.925178         0.305539        -0.100345
 C        -0.752803         1.176543        -0.032174
 C         0.235909         0.022728         0.106728
 O         1.442722        -0.083979         0.077573
 C        -0.683816        -1.193197         0.194036
 C        -0.111924        -2.475066         0.104764
 O        -1.526834        -0.742981        -1.058582
 H        -3.513121        -2.084138         0.911115
 H        -2.560665        -2.140160         2.524050
 H        -3.723769        -0.786663         2.158596
 H        -1.358842        -0.162604         2.061936
 H        -2.802679         0.826109        -0.431193
 H        -0.598076         1.442734        -1.067927
 H        -0.613069         2.000146         0.542811
 H         0.698456        -2.587656         0.895652
 H        -0.725578        -3.460699         0.123938
 H         0.334340        -2.585753        -0.918030
