19
Iteration:  4787
 C        -2.857219        -1.616525         1.681275
 C        -1.780093        -0.601463         1.128092
 C        -2.012092         0.329276        -0.053112
 C        -0.704793         1.166220        -0.233060
 C         0.292461         0.009377         0.109996
 O         1.528124        -0.057230         0.262992
 C        -0.712176        -1.134799         0.153187
 C        -0.229863        -2.517777         0.003244
 O        -1.619874        -0.735579        -0.956965
 H        -3.634376        -1.654951         0.827643
 H        -2.430210        -2.698212         1.992312
 H        -3.396786        -1.240428         2.619644
 H        -1.321557        -0.078295         2.105517
 H        -3.081483         0.756176        -0.119537
 H        -0.337745         1.559836        -1.158902
 H        -0.706146         2.096553         0.334670
 H         0.490914        -2.805561         0.743074
 H        -1.038541        -3.322687         0.019532
 H         0.201108        -2.577856        -1.006394
