19
Iteration:  2009
 C        -2.807645        -1.531035         1.576078
 C        -1.570634        -0.670032         1.212804
 C        -1.984939         0.350031         0.007365
 C        -0.799530         1.152694        -0.081422
 C         0.358309         0.034241        -0.029743
 O         1.559706         0.182062         0.186878
 C        -0.665749        -1.174719         0.082719
 C        -0.345630        -2.738578        -0.076958
 O        -1.795064        -0.777218        -0.831518
 H        -3.232265        -1.064344         2.460876
 H        -3.480914        -1.839474         0.800810
 H        -2.487484        -2.472866         2.077825
 H        -1.153628        -0.211295         2.151947
 H        -3.016999         0.941249        -0.120500
 H        -0.486076         1.652680        -1.091385
 H        -0.572607         1.797433         0.799889
 H        -0.181511        -3.185959         0.891806
 H        -1.131485        -3.253093        -0.576457
 H         0.527967        -2.944463        -0.643273
