19
Iteration:  3108
 C        -2.903255        -1.510827         1.664093
 C        -1.786510        -0.548077         1.109514
 C        -2.053886         0.329943        -0.130530
 C        -0.702856         1.153829        -0.067411
 C         0.279902        -0.011214         0.065420
 O         1.457592        -0.043437         0.167537
 C        -0.695536        -1.182762         0.140274
 C        -0.079634        -2.604819         0.035480
 O        -1.624483        -0.804272        -0.973153
 H        -3.429301        -2.199326         0.948811
 H        -2.600914        -2.002533         2.643520
 H        -3.635948        -0.746637         1.980951
 H        -1.230436         0.002105         1.887574
 H        -3.074162         0.740176        -0.217012
 H        -0.472402         2.098892        -0.769837
 H        -0.709736         1.868660         0.947771
 H         0.546606        -2.692841         0.905164
 H        -0.831454        -3.395272         0.230032
 H         0.636863        -2.669056        -0.751604
