19
Iteration:  2740charge 0 multiplicity 1
 C        -2.831607        -1.641414         1.595220
 C        -1.771045        -0.602358         1.146807
 C        -1.970045         0.410803        -0.041283
 C        -0.717684         1.249775        -0.103541
 C         0.259828        -0.057529         0.027354
 O         1.504016        -0.120075         0.191430
 C        -0.747681        -1.135718         0.097749
 C        -0.138771        -2.539199         0.186830
 O        -1.694770        -0.726963        -0.991859
 H        -3.027721        -2.287835         0.709044
 H        -2.352111        -2.336640         2.325936
 H        -3.764192        -1.253313         2.075313
 H        -1.469135        -0.024701         2.050862
 H        -2.845101         0.996261        -0.364414
 H        -0.620268         1.577086        -1.227597
 H        -0.809108         2.269271         0.506757
 H         0.238880        -2.782908         1.164054
 H        -0.883416        -3.249109        -0.262414
 H         0.814915        -2.609171        -0.354327
