19
Iteration:  3212
 C        -2.897875        -1.628347         1.461413
 C        -1.804217        -0.691587         1.215762
 C        -1.957459         0.341279         0.047675
 C        -0.733352         1.228428        -0.120003
 C         0.280325         0.089870         0.040628
 O         1.520321        -0.000155         0.016746
 C        -0.657893        -1.174027         0.194149
 C        -0.228959        -2.645988         0.273750
 O        -1.582573        -0.678505        -0.993909
 H        -3.345774        -2.142049         0.567192
 H        -2.643391        -2.455985         2.149047
 H        -3.778746        -1.097137         1.953330
 H        -1.473058        -0.081996         2.142052
 H        -3.004228         0.772466         0.031662
 H        -0.555455         1.578992        -1.103471
 H        -0.552346         1.952405         0.610817
 H         0.937604        -2.584280         0.482162
 H        -0.841720        -3.285842         0.934041
 H        -0.517741        -3.067385        -0.771987
