19
Iteration:  3794
 C        -2.860881        -1.698214         1.596908
 C        -1.823637        -0.608882         1.177318
 C        -1.996144         0.390036         0.011199
 C        -0.687284         1.181038        -0.034292
 C         0.302669         0.026441         0.075717
 O         1.469801        -0.024501         0.002671
 C        -0.701846        -1.164192         0.148690
 C        -0.236329        -2.588379         0.155562
 O        -1.568482        -0.676966        -1.007594
 H        -3.273812        -2.304476         0.747182
 H        -2.664447        -2.256346         2.500718
 H        -3.613661        -1.017563         1.944835
 H        -1.179878        -0.255117         2.095432
 H        -2.938681         0.898401        -0.309029
 H        -0.698159         1.717361        -0.985332
 H        -0.609684         1.928036         0.838854
 H         0.600563        -2.713619         0.788870
 H        -0.893142        -3.409208         0.453317
 H         0.122248        -2.853390        -0.850583
