19
Iteration:  2181
 C        -2.783079        -1.625200         1.552357
 C        -1.733160        -0.629450         1.179818
 C        -1.979602         0.342824         0.011945
 C        -0.734422         1.223388        -0.019022
 C         0.295762        -0.012863        -0.002241
 O         1.488454        -0.102943         0.013143
 C        -0.732549        -1.178504         0.143351
 C        -0.190822        -2.501911         0.107694
 O        -1.669579        -0.678340        -0.897195
 H        -3.064643        -1.519015         2.661149
 H        -3.781171        -1.458951         1.124605
 H        -2.600642        -2.711850         1.333029
 H        -1.439428        -0.028649         2.058963
 H        -3.013292         0.782452        -0.152890
 H        -0.698282         1.979052        -0.866329
 H        -0.728864         1.600106         0.970840
 H         0.949865        -2.553610         0.291069
 H        -0.860413        -3.224990         0.713007
 H        -0.337862        -2.821991        -0.954615
