19
Iteration:  2196charge 0 multiplicity 1
 C        -2.869131        -1.636593         1.676731
 C        -1.731515        -0.642347         1.203445
 C        -2.012188         0.393002         0.044144
 C        -0.687157         1.237170         0.018795
 C         0.214773         0.034569        -0.013227
 O         1.450825        -0.173044         0.079614
 C        -0.708918        -1.121428         0.099563
 C        -0.102398        -2.517896         0.080949
 O        -1.696123        -0.725098        -1.067993
 H        -2.783947        -1.702279         2.686858
 H        -3.790883        -1.393955         1.155658
 H        -2.587439        -2.593672         1.335440
 H        -1.063768        -0.293019         2.084518
 H        -3.025034         1.006413        -0.124699
 H        -0.653856         1.830052        -0.901702
 H        -0.378660         2.034830         0.760668
 H         0.838674        -2.332097         0.480869
 H        -0.599756        -3.227029         0.654122
 H        -0.050720        -2.959308        -0.923391
