19
Iteration:   103
 C        -2.761577        -1.521529         1.682511
 C        -1.797664        -0.591095         1.064599
 C        -1.986231         0.360747        -0.135651
 C        -0.770136         1.198962        -0.064755
 C         0.245299         0.017681         0.023391
 O         1.472080        -0.063102         0.292636
 C        -0.742219        -1.155041         0.068057
 C        -0.137403        -2.481070         0.046244
 O        -1.649447        -0.935561        -0.959461
 H        -2.055479        -2.016334         2.376869
 H        -3.619814        -0.998797         2.113980
 H        -3.084646        -2.315904         0.998697
 H        -1.460897        -0.109221         2.031456
 H        -2.931411         0.828586        -0.501252
 H        -0.727195         2.003745        -0.757301
 H        -0.911259         1.916800         0.889025
 H         0.695437        -2.430968         0.718674
 H        -0.702626        -3.364011         0.249126
 H         0.260457        -2.527577        -0.938775
