19
Iteration:  4845
 C        -2.793757        -1.551983         1.632318
 C        -1.659191        -0.645701         1.143209
 C        -2.006579         0.359087         0.016465
 C        -0.708879         1.226034        -0.106030
 C         0.298642         0.009442        -0.015339
 O         1.497993         0.005231         0.317293
 C        -0.707907        -1.210056        -0.015568
 C        -0.258204        -2.614353         0.088269
 O        -1.726053        -0.753149        -1.015102
 H        -3.352211        -1.894126         0.727621
 H        -2.529831        -2.495516         2.305545
 H        -3.468193        -0.725767         2.052939
 H        -1.217763        -0.176286         2.137923
 H        -2.981274         0.756500        -0.172620
 H        -0.546636         1.476492        -1.160060
 H        -0.687177         1.985023         0.654575
 H         0.174141        -2.769175         1.134177
 H        -1.104902        -3.207843        -0.090256
 H         0.621992        -2.890436        -0.619726
