19
Iteration:  3756
 C        -2.866589        -1.576824         1.489394
 C        -1.812501        -0.605828         1.224918
 C        -1.980802         0.362766         0.033971
 C        -0.729753         1.132458         0.018879
 C         0.300841         0.026469         0.053828
 O         1.493541        -0.068250        -0.050282
 C        -0.738465        -1.150234         0.168215
 C        -0.067314        -2.601449         0.121875
 O        -1.679828        -0.728650        -0.934492
 H        -2.838107        -2.421762         0.798462
 H        -2.965992        -1.969625         2.523093
 H        -3.804364        -0.950312         1.290283
 H        -1.674196        -0.107600         2.147311
 H        -2.865843         0.994523        -0.061179
 H        -0.339794         1.714448        -0.851538
 H        -0.652794         1.780790         0.877917
 H         0.797775        -2.398189         0.853199
 H        -0.848194        -3.243362         0.520767
 H         0.136152        -2.739932        -0.955310
