19
Iteration:  4354charge 0 multiplicity 1
 C        -2.931653        -1.591242         1.531199
 C        -1.726415        -0.638282         1.218644
 C        -1.922887         0.303362         0.074551
 C        -0.726465         1.202999        -0.074369
 C         0.266120         0.037013         0.014992
 O         1.531911         0.058523        -0.014157
 C        -0.702202        -1.168693         0.167612
 C        -0.300103        -2.587689         0.132404
 O        -1.554837        -0.763894        -0.943844
 H        -3.452523        -2.023190         0.600896
 H        -2.634946        -2.496943         2.208799
 H        -3.853072        -1.029793         2.088534
 H        -1.322705        -0.257247         2.186689
 H        -2.992018         0.612646         0.007384
 H        -0.521931         1.931755        -0.973825
 H        -0.390205         1.881512         0.759636
 H        -0.223728        -3.027838         1.175754
 H        -1.144838        -3.214109        -0.360912
 H         0.663283        -2.814522        -0.426216
