19
Iteration:  3720
 C        -3.024471        -1.511021         1.450607
 C        -1.747903        -0.721147         1.323357
 C        -1.955143         0.358433         0.088359
 C        -0.668553         1.220187        -0.105837
 C         0.307324         0.061740         0.037676
 O         1.469790         0.008040        -0.015302
 C        -0.662803        -1.155209         0.226324
 C        -0.128401        -2.562395         0.035865
 O        -1.629521        -0.845056        -0.862906
 H        -3.269721        -2.103204         0.509670
 H        -2.967657        -2.152375         2.387759
 H        -3.862676        -0.774764         1.558077
 H        -1.545762        -0.113153         2.142052
 H        -2.899143         0.864577        -0.076499
 H        -0.696816         1.687923        -1.084168
 H        -0.629076         1.942903         0.682770
 H         0.709047        -2.968999         0.617175
 H        -0.815488        -3.360774         0.297615
 H         0.326036        -2.956474        -0.930863
