19
Iteration:  2582charge 0 multiplicity 1
 C        -2.822057        -1.616542         1.614956
 C        -1.819172        -0.600347         1.104801
 C        -1.928778         0.346621        -0.098804
 C        -0.690271         1.246560        -0.066991
 C         0.265365         0.023604         0.085107
 O         1.488799        -0.048828         0.163575
 C        -0.754142        -1.176366         0.114480
 C        -0.129318        -2.610978         0.093750
 O        -1.739842        -0.730771        -0.950588
 H        -2.829423        -2.475489         0.949223
 H        -2.517250        -1.862879         2.602052
 H        -3.830733        -1.184516         1.633974
 H        -1.352487        -0.096503         1.961797
 H        -2.821080         0.896761        -0.205587
 H        -0.435785         1.918025        -0.979081
 H        -0.645567         1.809809         0.863995
 H         0.660690        -2.672017         0.931927
 H        -0.801601        -3.449002         0.277584
 H         0.352635        -2.800053        -0.888780
