19
Iteration:  1918
 C        -2.908665        -1.521692         1.580678
 C        -1.713356        -0.598010         1.223069
 C        -2.034815         0.336322        -0.035774
 C        -0.732467         1.193740        -0.016605
 C         0.309060        -0.036046         0.010612
 O         1.468304         0.017105         0.033883
 C        -0.674843        -1.241456         0.082731
 C        -0.144589        -2.597182         0.069345
 O        -1.649016        -0.756773        -0.891465
 H        -2.429662        -2.343412         2.136041
 H        -3.572272        -1.002769         2.258809
 H        -3.395088        -1.969309         0.734131
 H        -1.497477         0.059416         2.116989
 H        -3.046132         0.832602        -0.288672
 H        -0.629688         1.936895        -0.822169
 H        -0.627373         1.682710         0.976084
 H         0.837997        -2.465191         0.549683
 H        -0.723125        -3.295906         0.679849
 H        -0.000377        -3.068679        -0.868940
