19
Iteration:  2340charge 0 multiplicity 1
 C        -2.750952        -1.616448         1.546230
 C        -1.729423        -0.493064         1.213415
 C        -2.026305         0.395745        -0.051826
 C        -0.736253         1.177828        -0.004122
 C         0.208625        -0.085233         0.055670
 O         1.444784        -0.140900         0.081308
 C        -0.769324        -1.141277         0.104610
 C        -0.105790        -2.454223         0.094667
 O        -1.643874        -0.802209        -0.944754
 H        -2.514965        -2.599869         1.201655
 H        -2.965367        -1.655448         2.581647
 H        -3.696028        -1.309159         1.112375
 H        -1.438398        -0.012367         2.175341
 H        -2.972508         0.964672        -0.345925
 H        -0.475015         1.757639        -0.866684
 H        -0.824387         1.946750         0.831665
 H         0.459338        -2.530257         0.994753
 H        -0.817498        -3.314723         0.049796
 H         0.569531        -2.602636        -0.701072
