19
Iteration:  4060
 C        -2.832384        -1.617458         1.522353
 C        -1.725950        -0.593332         1.177502
 C        -2.052634         0.390065         0.000942
 C        -0.671265         1.203454        -0.030208
 C         0.286191        -0.034847         0.057348
 O         1.443955        -0.015186        -0.022355
 C        -0.756049        -1.162217         0.205364
 C        -0.206646        -2.624558         0.140057
 O        -1.587589        -0.692866        -0.933541
 H        -3.164883        -2.287799         0.705288
 H        -2.546400        -2.487744         2.191883
 H        -3.741651        -1.098303         1.926751
 H        -1.354431        -0.003196         2.035935
 H        -3.013562         0.862589        -0.155996
 H        -0.485539         1.901026        -0.968190
 H        -0.495916         1.756519         0.916663
 H         0.328856        -2.883424         1.093721
 H        -1.040238        -3.383247         0.026570
 H         0.545810        -2.814969        -0.638496
