19
Iteration:  4285charge 0 multiplicity 1
 C        -2.973216        -1.540965         1.601819
 C        -1.755787        -0.702880         1.175044
 C        -2.005927         0.308518         0.044443
 C        -0.713957         1.229567        -0.166586
 C         0.345131         0.016533         0.130229
 O         1.509471        -0.143875         0.091151
 C        -0.663980        -1.156082         0.192138
 C        -0.107408        -2.514761         0.045243
 O        -1.686353        -0.656328        -0.990424
 H        -3.587973        -2.002716         0.755675
 H        -2.515598        -2.409141         2.201994
 H        -3.739498        -1.092249         2.307076
 H        -1.444441        -0.309905         2.198470
 H        -2.999912         0.739210        -0.019967
 H        -0.726888         1.580705        -1.183422
 H        -0.677713         2.135414         0.412790
 H         0.721971        -2.540798         0.788120
 H        -0.817027        -3.327181         0.301793
 H         0.350796        -2.688391        -0.919147
