19
Iteration:  1142charge 0 multiplicity 1
 C        -2.886694        -1.655350         1.532991
 C        -1.750701        -0.595799         1.206616
 C        -1.999115         0.388211         0.125694
 C        -0.751890         1.182163        -0.120719
 C         0.210769        -0.047775         0.083828
 O         1.406962        -0.164387        -0.007126
 C        -0.730723        -1.125865         0.168370
 C        -0.010981        -2.507041         0.169696
 O        -1.580348        -0.613401        -1.005326
 H        -2.396354        -2.462203         2.089273
 H        -3.798304        -1.365884         2.088947
 H        -3.301394        -2.057749         0.591656
 H        -1.355223        -0.132331         2.115254
 H        -3.018927         0.754193        -0.054896
 H        -0.621235         1.467029        -1.135302
 H        -0.680930         2.154380         0.650213
 H         0.540247        -2.533891         1.130992
 H        -0.869856        -3.254554         0.199523
 H         0.536792        -2.823328        -0.753391
