19
Iteration:  1260charge 0 multiplicity 1
 C        -2.814930        -1.636148         1.565345
 C        -1.767707        -0.515598         1.206642
 C        -1.997689         0.386464         0.015745
 C        -0.646247         1.154920        -0.064048
 C         0.313037         0.035068         0.032696
 O         1.475801        -0.049863         0.076686
 C        -0.732929        -1.176555         0.224617
 C        -0.073860        -2.559208         0.036393
 O        -1.831961        -0.806238        -0.954477
 H        -2.498663        -2.235863         2.411894
 H        -3.819267        -1.198290         1.671750
 H        -2.989268        -2.226796         0.653364
 H        -1.259261         0.006456         2.080922
 H        -3.031356         0.978533        -0.277306
 H        -0.581596         1.925513        -0.833874
 H        -0.496376         1.786069         0.792529
 H         0.127585        -2.903114         1.070819
 H        -0.772631        -3.236557        -0.513100
 H         0.885482        -2.507763        -0.495734
