19
Iteration:  2569charge 0 multiplicity 1
 C        -2.925056        -1.576675         1.652328
 C        -1.707242        -0.639038         1.162306
 C        -2.051451         0.354649        -0.017470
 C        -0.653621         1.243653        -0.081273
 C         0.254263         0.035386         0.077872
 O         1.504525         0.008703         0.181668
 C        -0.663677        -1.206542         0.130438
 C        -0.182459        -2.578265         0.020363
 O        -1.644227        -0.790341        -1.025370
 H        -3.103051        -2.520166         1.100027
 H        -2.600644        -1.903834         2.607287
 H        -3.875689        -1.023710         1.770719
 H        -1.366127        -0.233965         2.104911
 H        -3.045018         0.730879        -0.306083
 H        -0.581649         1.644827        -1.077912
 H        -0.533205         2.025166         0.627822
 H         0.440164        -2.862827         0.945079
 H        -1.080059        -3.250776         0.010377
 H         0.363481        -2.734756        -0.894289
