19
Iteration:  1393
 C        -2.878281        -1.598045         1.618416
 C        -1.726993        -0.755642         1.195939
 C        -1.959975         0.355158         0.029155
 C        -0.694815         1.161747        -0.151814
 C         0.259000         0.023008         0.055960
 O         1.430021        -0.057614         0.082347
 C        -0.756208        -1.182873         0.142630
 C        -0.070371        -2.512428         0.064160
 O        -1.697267        -0.643650        -0.921204
 H        -2.743182        -2.107098         2.570627
 H        -3.739994        -0.964819         1.777370
 H        -3.088496        -2.300448         0.834076
 H        -1.309175        -0.215217         2.084798
 H        -2.947545         0.947598        -0.184950
 H        -0.565413         1.495744        -1.143227
 H        -0.596466         1.983679         0.542263
 H         0.829920        -2.392662         0.655231
 H        -0.619877        -3.358157         0.532957
 H         0.212327        -2.798622        -0.975867
