19
Iteration:  3191
 C        -2.865110        -1.601578         1.342698
 C        -1.741225        -0.598691         1.247270
 C        -1.989937         0.405344        -0.000345
 C        -0.667057         1.195322        -0.098165
 C         0.258859        -0.004121         0.089673
 O         1.511462         0.089394        -0.002505
 C        -0.664447        -1.181408         0.193195
 C        -0.261363        -2.590948         0.218601
 O        -1.637945        -0.838874        -0.824419
 H        -3.290647        -1.799137         0.339375
 H        -2.704823        -2.584654         1.747343
 H        -3.700902        -1.197751         1.972109
 H        -1.203019        -0.423455         2.228341
 H        -2.975749         0.823229        -0.431585
 H        -0.660287         1.540849        -1.094636
 H        -0.489424         1.894379         0.651254
 H         0.879675        -2.590683         0.463147
 H        -0.872787        -3.138351         0.962305
 H        -0.561312        -3.053854        -0.792322
