19
Iteration:  2945charge 0 multiplicity 1
 C        -3.007704        -1.479632         1.531867
 C        -1.780653        -0.604759         1.192063
 C        -1.901547         0.322945        -0.072900
 C        -0.732504         1.194716         0.008410
 C         0.291099         0.005972         0.015510
 O         1.537739         0.074735         0.042393
 C        -0.705873        -1.194639         0.212684
 C        -0.194078        -2.649886         0.101216
 O        -1.595903        -0.842448        -0.898473
 H        -3.095439        -2.358698         0.847077
 H        -2.801475        -2.042162         2.504632
 H        -4.022054        -1.049589         1.637833
 H        -1.427890        -0.006841         2.085556
 H        -2.754524         0.895046        -0.496492
 H        -0.740457         1.767228        -0.945084
 H        -0.704354         1.775209         0.841301
 H         0.878476        -2.584171         0.434563
 H        -0.800530        -3.474553         0.654098
 H         0.007826        -2.813500        -1.006762
