19
Iteration:  2201
 C        -2.876221        -1.610605         1.695460
 C        -1.710890        -0.669126         1.221993
 C        -2.051495         0.404391         0.062002
 C        -0.621694         1.261614        -0.004712
 C         0.240467         0.037444         0.054546
 O         1.406285        -0.160705         0.088755
 C        -0.757599        -1.183536        -0.007189
 C        -0.048248        -2.518745         0.085727
 O        -1.702854        -0.707055        -1.067557
 H        -2.808590        -1.743508         2.860977
 H        -3.885119        -1.409079         1.274615
 H        -2.625970        -2.642698         1.264240
 H        -1.201465        -0.125458         2.006860
 H        -2.950800         0.849091        -0.157719
 H        -0.623078         1.681816        -1.027564
 H        -0.337395         2.056725         0.704749
 H         0.989523        -2.251013         0.497446
 H        -0.728403        -3.304528         0.588623
 H         0.045417        -2.925289        -0.925252
