19
Iteration:  4727charge 0 multiplicity 1
 C        -2.973214        -1.463150         1.454320
 C        -1.741218        -0.661988         1.200660
 C        -1.920204         0.273188         0.052332
 C        -0.717323         1.151996        -0.007407
 C         0.276330         0.026621        -0.006998
 O         1.527292         0.002355         0.085205
 C        -0.682667        -1.173950         0.123688
 C        -0.176666        -2.554644         0.104803
 O        -1.669662        -0.770018        -0.894786
 H        -3.068768        -2.223514         0.743253
 H        -2.888938        -1.993475         2.321315
 H        -3.867524        -0.901626         1.414680
 H        -1.243534        -0.281005         2.044698
 H        -2.845558         0.787870         0.031005
 H        -0.680605         1.647729        -1.009887
 H        -0.731285         1.688821         0.952015
 H         0.828005        -2.588136         0.609417
 H        -0.891913        -3.262805         0.460283
 H         0.118816        -2.806659        -0.944402
