19
Iteration:  3468
 C        -3.018429        -1.607287         1.406462
 C        -1.708429        -0.689101         1.242092
 C        -1.989681         0.390070         0.018303
 C        -0.695883         1.225541        -0.140817
 C         0.303272         0.039992         0.108355
 O         1.565189         0.015655        -0.033999
 C        -0.705968        -1.153865         0.206184
 C        -0.191266        -2.584597         0.181309
 O        -1.648947        -0.753966        -0.849485
 H        -3.528415        -1.866455         0.458529
 H        -2.821411        -2.573674         1.929730
 H        -3.770823        -1.206950         2.097088
 H        -1.329458        -0.271379         2.245813
 H        -3.037968         0.695933        -0.135958
 H        -0.441983         1.720771        -1.053193
 H        -0.368804         1.974189         0.490803
 H         0.882826        -2.652718         0.469977
 H        -0.700709        -3.353255         0.892353
 H        -0.233853        -3.135426        -0.797127
