19
Iteration:  4518
 C        -2.819365        -1.576156         1.638836
 C        -1.720361        -0.650668         1.146248
 C        -1.954349         0.330170         0.012331
 C        -0.723848         1.209161        -0.054401
 C         0.291807        -0.028334         0.037695
 O         1.496853         0.017172         0.258021
 C        -0.668918        -1.169360         0.002894
 C        -0.302876        -2.573618         0.065231
 O        -1.669902        -0.748825        -1.021846
 H        -3.196702        -2.208646         0.836787
 H        -2.436078        -2.289947         2.360673
 H        -3.583353        -0.868888         1.958964
 H        -1.284810        -0.057614         2.027640
 H        -2.958581         0.769462        -0.151880
 H        -0.585363         1.519888        -1.175274
 H        -0.678889         2.063681         0.700648
 H         0.649036        -2.735044         0.565080
 H        -1.016238        -3.183153         0.637426
 H        -0.134858        -2.836362        -0.999313
