19
Iteration:   791
 C        -3.025085        -1.566260         1.683430
 C        -1.804789        -0.799705         1.180780
 C        -1.950054         0.274529        -0.062034
 C        -0.678525         1.227479         0.051355
 C         0.253644         0.044333         0.016702
 O         1.477430         0.076803        -0.056358
 C        -0.678158        -1.146757         0.127666
 C        -0.161919        -2.542673         0.183444
 O        -1.521847        -0.775042        -1.020923
 H        -2.785830        -1.998378         2.714036
 H        -3.985264        -0.938018         1.665527
 H        -3.221730        -2.406005         0.936019
 H        -1.467801        -0.180933         2.098732
 H        -2.958672         0.782378        -0.351052
 H        -0.553561         1.647750        -0.910206
 H        -0.353112         1.957367         0.939779
 H         0.277719        -2.643910         1.203235
 H        -1.042191        -3.216622         0.079716
 H         0.574169        -2.761882        -0.601643
