19
Iteration:  4543charge 0 multiplicity 1
 C        -2.827314        -1.612490         1.716437
 C        -1.755663        -0.690028         1.143488
 C        -1.956000         0.372043        -0.044680
 C        -0.669324         1.253861        -0.133543
 C         0.241492        -0.012791         0.018486
 O         1.467805        -0.040788         0.255330
 C        -0.762421        -1.218726         0.049149
 C        -0.192934        -2.636354         0.050037
 O        -1.670264        -0.617276        -1.021351
 H        -3.032795        -2.519820         1.056641
 H        -2.331458        -2.114317         2.576323
 H        -3.690743        -0.875638         1.874600
 H        -1.266203        -0.136428         1.991329
 H        -2.879292         0.859045        -0.241742
 H        -0.596549         1.814050        -1.051251
 H        -0.649921         1.887577         0.673522
 H         0.463785        -2.727733         0.949637
 H        -0.893396        -3.289373         0.392956
 H         0.406572        -2.871147        -0.837026
