19
Iteration:  1458
 C        -2.807648        -1.593351         1.608537
 C        -1.722444        -0.611933         1.210472
 C        -2.039062         0.313049         0.098968
 C        -0.712564         1.218786        -0.110363
 C         0.250143         0.039739         0.054923
 O         1.512896         0.098581         0.040897
 C        -0.683378        -1.206682         0.147270
 C        -0.314503        -2.674850         0.075830
 O        -1.568769        -0.764401        -0.950100
 H        -2.598391        -2.564102         2.063052
 H        -3.474901        -1.022794         2.223207
 H        -3.328799        -1.789414         0.688456
 H        -1.242711        -0.141681         2.064379
 H        -2.894519         0.855666        -0.390135
 H        -0.737309         1.425500        -1.129586
 H        -0.651487         2.005320         0.615699
 H         0.070626        -3.017048         0.990931
 H        -1.184491        -3.231080        -0.248005
 H         0.523682        -2.719511        -0.631378
