19
Iteration:  3540
 C        -2.948283        -1.515960         1.616690
 C        -1.820822        -0.632581         1.206098
 C        -2.056130         0.297855         0.007782
 C        -0.656769         1.149935        -0.123699
 C         0.278162        -0.052737         0.085554
 O         1.533554        -0.011683         0.096340
 C        -0.721049        -1.140569         0.128699
 C        -0.119092        -2.554640         0.054172
 O        -1.601524        -0.736608        -0.977387
 H        -3.416043        -2.104866         0.832740
 H        -2.649321        -2.216230         2.409093
 H        -3.740317        -0.907872         2.126789
 H        -1.231445        -0.160797         1.992647
 H        -3.087487         0.716416        -0.172421
 H        -0.443078         1.852216        -0.952089
 H        -0.687627         1.916606         0.750600
 H         0.878937        -2.538480         0.435463
 H        -0.676083        -3.271874         0.632347
 H        -0.100706        -2.968106        -0.940639
