19
Iteration:  4565charge 0 multiplicity 1
 C        -2.811001        -1.528444         1.630356
 C        -1.720866        -0.547133         1.153326
 C        -2.066518         0.363636        -0.024901
 C        -0.656087         1.136224        -0.046735
 C         0.255632         0.013658         0.140654
 O         1.469426        -0.075275         0.190512
 C        -0.781911        -1.154148         0.092375
 C        -0.167037        -2.527959        -0.015290
 O        -1.672340        -0.812700        -1.003191
 H        -2.990283        -2.332826         0.849079
 H        -2.341767        -2.147528         2.418179
 H        -3.760526        -0.978187         1.930173
 H        -1.095717        -0.097601         1.976833
 H        -2.980200         0.874821        -0.246667
 H        -0.526498         1.548942        -1.037493
 H        -0.427242         1.825345         0.672758
 H         0.313485        -2.864932         0.924689
 H        -0.921661        -3.220574        -0.099030
 H         0.572982        -2.510409        -0.816885
