19
Iteration:  1471charge 0 multiplicity 1
 C        -2.944895        -1.602678         1.621235
 C        -1.684799        -0.719759         1.264737
 C        -1.912822         0.312696        -0.041839
 C        -0.728314         1.154023        -0.160717
 C         0.307123         0.034299         0.039177
 O         1.527732         0.226839         0.029912
 C        -0.683841        -1.209499         0.165719
 C        -0.334351        -2.700712         0.070377
 O        -1.600806        -0.688279        -0.892131
 H        -2.575884        -2.550348         2.013006
 H        -3.490807        -1.090833         2.402182
 H        -3.660599        -1.814068         0.824127
 H        -1.248470        -0.246654         2.193810
 H        -3.021443         0.632919         0.003425
 H        -0.640402         1.588983        -1.091056
 H        -0.435326         1.980671         0.453410
 H        -0.063822        -3.123834         1.085999
 H        -1.193371        -3.284575        -0.260573
 H         0.518180        -2.957075        -0.610770
