19
Iteration:  1537
 C        -2.850992        -1.602157         1.583499
 C        -1.718025        -0.612676         1.201235
 C        -1.984227         0.348337         0.011931
 C        -0.706557         1.281055        -0.013221
 C         0.230509         0.011493        -0.022359
 O         1.422883        -0.149709         0.031008
 C        -0.780841        -1.184531         0.177128
 C        -0.091109        -2.476862         0.064624
 O        -1.641498        -0.766415        -0.924273
 H        -2.431452        -2.263966         2.309642
 H        -3.719172        -1.187327         2.100796
 H        -3.267761        -2.205032         0.775995
 H        -1.360998        -0.036791         2.085533
 H        -3.009557         0.825023        -0.232345
 H        -0.508595         1.572141        -0.995177
 H        -0.505157         2.112243         0.681329
 H         0.519020        -2.500327         1.007075
 H        -0.694579        -3.378910         0.085014
 H         0.515425        -2.498327        -0.837559
