19
Iteration:  4217
 C        -2.830262        -1.561190         1.560262
 C        -1.714729        -0.637423         1.179343
 C        -1.925482         0.280696         0.013733
 C        -0.774206         1.190711        -0.124504
 C         0.313333         0.049002         0.152748
 O         1.565847         0.046199         0.195639
 C        -0.709674        -1.187392         0.041633
 C        -0.326836        -2.654363        -0.002453
 O        -1.670947        -0.710322        -0.941987
 H        -3.260645        -2.245142         0.703049
 H        -2.443675        -2.106510         2.493262
 H        -3.696299        -0.910281         1.978576
 H        -1.018766        -0.237647         2.047121
 H        -2.944601         0.753431        -0.015321
 H        -0.632629         1.513503        -1.165982
 H        -0.707210         2.185092         0.458255
 H         0.669603        -2.769599         0.476634
 H        -0.950205        -3.089936         0.788920
 H        -0.486500        -3.262774        -0.946671
