19
Iteration:   913
 C        -2.889306        -1.513849         1.678934
 C        -1.714913        -0.598937         1.188923
 C        -1.972237         0.283027        -0.059501
 C        -0.790746         1.219741        -0.016019
 C         0.217693         0.061717         0.053737
 O         1.415834        -0.048331         0.093003
 C        -0.654502        -1.212442         0.141293
 C        -0.116457        -2.608943        -0.002038
 O        -1.569686        -0.766833        -0.991438
 H        -2.442026        -2.179001         2.433011
 H        -3.808145        -0.992065         2.086707
 H        -3.335080        -2.065610         0.781893
 H        -1.355546         0.020758         2.076580
 H        -2.934518         0.685742        -0.407393
 H        -0.577526         1.840067        -0.817052
 H        -0.877645         1.814179         0.961074
 H         0.377995        -2.695792         1.002493
 H        -0.980434        -3.265884        -0.078428
 H         0.671156        -2.725401        -0.767916
