19
Iteration:  4468
 C        -2.993356        -1.520868         1.518956
 C        -1.795800        -0.671299         1.226591
 C        -1.947838         0.344378         0.053043
 C        -0.691254         1.137272        -0.192131
 C         0.274827         0.046353         0.048279
 O         1.532581         0.017053         0.154869
 C        -0.661203        -1.168874         0.153799
 C        -0.162383        -2.570369         0.000628
 O        -1.649348        -0.770576        -0.848942
 H        -3.600013        -1.685789         0.586337
 H        -2.641006        -2.506861         1.892818
 H        -3.638576        -1.021282         2.304077
 H        -1.398577        -0.346635         2.158517
 H        -2.915772         0.767701        -0.117267
 H        -0.638358         1.525023        -1.193815
 H        -0.348828         1.878607         0.660900
 H         0.915581        -2.624816         0.381782
 H        -0.807800        -3.302434         0.529693
 H        -0.103332        -2.823140        -1.076794
