19
Iteration:   627charge 0 multiplicity 1
 C        -2.802900        -1.543352         1.793873
 C        -1.836204        -0.617584         1.116333
 C        -2.020241         0.260183        -0.130126
 C        -0.729547         1.146460        -0.198155
 C         0.191859        -0.017466         0.111530
 O         1.386247        -0.067535         0.212513
 C        -0.797843        -1.196164         0.164634
 C        -0.095778        -2.428010         0.037861
 O        -1.480312        -0.718328        -1.054625
 H        -2.072097        -2.094874         2.484213
 H        -3.402083        -0.977929         2.558945
 H        -3.403461        -2.343396         1.300947
 H        -1.292230        -0.032679         1.894367
 H        -3.042493         0.733377        -0.428691
 H        -0.631876         1.602083        -1.123753
 H        -0.491719         2.009573         0.618107
 H         0.271919        -2.708821         1.023382
 H        -0.835907        -3.250508        -0.244011
 H         0.717112        -2.652166        -0.641503
