19
Iteration:  4788charge 0 multiplicity 1
 C        -2.854222        -1.618439         1.685888
 C        -1.780499        -0.586906         1.120717
 C        -2.005766         0.323148        -0.051246
 C        -0.702367         1.169560        -0.230943
 C         0.293431         0.025789         0.125424
 O         1.524755        -0.063339         0.261828
 C        -0.713012        -1.142173         0.155648
 C        -0.239428        -2.522487         0.004363
 O        -1.627043        -0.736695        -0.965109
 H        -3.623473        -1.659900         0.831418
 H        -2.391344        -2.711823         1.963123
 H        -3.398318        -1.247523         2.640988
 H        -1.299866        -0.095802         2.101922
 H        -3.054505         0.745075        -0.148959
 H        -0.359946         1.544721        -1.160960
 H        -0.722742         2.089045         0.317777
 H         0.530110        -2.790329         0.748314
 H        -1.043025        -3.281197        -0.001130
 H         0.252762        -2.612022        -1.028237
