19
Iteration:   220
 C        -2.984097        -1.688035         1.732002
 C        -1.910162        -0.670051         1.141520
 C        -1.966964         0.291832        -0.192344
 C        -0.768003         1.241902        -0.001193
 C         0.229935         0.029229         0.141252
 O         1.405378        -0.092724        -0.085092
 C        -0.627759        -1.130095         0.202627
 C        -0.022337        -2.506517         0.186173
 O        -1.453422        -0.660176        -1.002861
 H        -2.494932        -2.400324         2.382176
 H        -3.754305        -1.168248         2.303369
 H        -3.536374        -2.278302         1.014321
 H        -1.602099        -0.036183         1.951263
 H        -2.858752         0.863283        -0.575743
 H        -0.529376         1.875993        -0.916928
 H        -0.876710         2.021582         0.723221
 H         0.493162        -2.708972         1.183910
 H        -0.878181        -3.251748         0.182941
 H         0.632504        -2.729008        -0.646917
