19
Iteration:   885charge 0 multiplicity 1
 C        -2.921926        -1.650421         1.613001
 C        -1.820549        -0.683951         1.154194
 C        -2.027815         0.417588         0.067047
 C        -0.660324         1.127964        -0.082975
 C         0.275769         0.013238         0.090343
 O         1.496573        -0.015040         0.032198
 C        -0.718544        -1.246305         0.135887
 C        -0.015654        -2.488257         0.177386
 O        -1.723935        -0.681451        -1.071891
 H        -2.338717        -2.385945         2.169955
 H        -3.481379        -1.128035         2.359003
 H        -3.613257        -1.959109         0.872970
 H        -1.491385        -0.241325         2.068142
 H        -2.919225         0.953276        -0.226519
 H        -0.513195         1.464222        -1.235918
 H        -0.460763         1.868467         0.627243
 H        -0.004096        -2.552607         1.251532
 H        -0.651943        -3.336999        -0.183745
 H         1.004585        -2.454958        -0.209853
