19
Iteration:  4756charge 0 multiplicity 1
 C        -2.935113        -1.441272         1.527869
 C        -1.720753        -0.641002         1.198566
 C        -1.911572         0.320945         0.026235
 C        -0.675918         1.210370        -0.105326
 C         0.279142         0.028998         0.056015
 O         1.441007         0.051920         0.179872
 C        -0.713893        -1.226933         0.082432
 C        -0.127299        -2.663297         0.029424
 O        -1.700319        -0.804584        -0.912216
 H        -3.305207        -1.913934         0.566102
 H        -2.716470        -2.369352         2.203600
 H        -3.839844        -0.926961         2.000858
 H        -1.183489        -0.105247         2.064506
 H        -2.903786         0.794637         0.148871
 H        -0.408931         1.627867        -1.056325
 H        -0.682343         1.893101         0.730146
 H         0.714391        -2.799967         0.753686
 H        -0.796797        -3.471380         0.324658
 H         0.163641        -2.777359        -1.074455
