19
Iteration:  1276
 C        -2.767912        -1.605357         1.540364
 C        -1.745670        -0.599117         1.173063
 C        -2.018900         0.396567        -0.058437
 C        -0.658237         1.243025        -0.011492
 C         0.231493        -0.035122         0.037551
 O         1.404662        -0.131414         0.082258
 C        -0.754627        -1.171718         0.034872
 C        -0.089832        -2.473535         0.109641
 O        -1.744164        -0.769341        -0.865114
 H        -2.323808        -2.181053         2.398510
 H        -3.605105        -1.203536         2.129676
 H        -2.910521        -2.305776         0.713567
 H        -1.448478        -0.155626         2.108922
 H        -2.968933         0.780276        -0.273876
 H        -0.234968         1.816520        -0.883730
 H        -0.559699         1.967986         0.865565
 H         0.268537        -2.728082         1.112285
 H        -0.677987        -3.333128        -0.221290
 H         0.754512        -2.344669        -0.609458
