19
Iteration:  1991
 C        -2.822929        -1.577140         1.654532
 C        -1.664215        -0.620239         1.251934
 C        -1.931576         0.281699         0.089454
 C        -0.659338         1.238926        -0.156276
 C         0.304600         0.047879         0.058983
 O         1.487524         0.097998         0.173564
 C        -0.702864        -1.190985         0.000498
 C        -0.284374        -2.575092        -0.068773
 O        -1.773282        -0.848023        -0.893169
 H        -3.259495        -1.323266         2.652309
 H        -3.626819        -1.258619         0.898058
 H        -2.527524        -2.637906         1.526348
 H        -1.131981        -0.167694         2.067747
 H        -2.864002         0.624950        -0.015295
 H        -0.748544         1.555243        -1.158228
 H        -0.388117         2.008594         0.620995
 H        -0.037386        -3.073833         0.911240
 H        -1.136586        -3.162083        -0.479759
 H         0.648630        -2.861287        -0.744360
