19
Iteration:  2903charge 0 multiplicity 1
 C        -2.875929        -1.659409         1.379935
 C        -1.764830        -0.592661         1.217823
 C        -1.928522         0.376351         0.085451
 C        -0.721493         1.239848        -0.151928
 C         0.322116         0.000456         0.026423
 O         1.515002         0.023109         0.065957
 C        -0.722095        -1.217594         0.192346
 C        -0.216405        -2.618619         0.261099
 O        -1.648600        -0.716263        -0.933482
 H        -3.220870        -2.032737         0.395052
 H        -2.797172        -2.467808         2.150695
 H        -3.649928        -0.951576         1.667495
 H        -1.446979        -0.186425         2.210992
 H        -2.886453         0.841480        -0.030556
 H        -0.792700         1.516862        -1.223119
 H        -0.738205         2.165958         0.547840
 H         0.884015        -2.673431         0.556891
 H        -0.914925        -3.313164         0.935421
 H        -0.178647        -3.184098        -0.738027
