19
Iteration:   852charge 0 multiplicity 1
 C        -2.835342        -1.561363         1.371578
 C        -1.677195        -0.660991         1.246836
 C        -2.000301         0.400227         0.060190
 C        -0.748921         1.253626        -0.152957
 C         0.235086         0.061290        -0.019519
 O         1.461832        -0.030857         0.022424
 C        -0.704776        -1.209651         0.223539
 C        -0.171411        -2.520084         0.209595
 O        -1.654159        -0.867379        -0.846576
 H        -2.537962        -2.593614         1.536019
 H        -3.415828        -1.308678         2.221226
 H        -3.304309        -1.725641         0.447960
 H        -1.439621        -0.197263         2.165528
 H        -2.975454         0.887947         0.004095
 H        -0.586743         1.945896        -1.129862
 H        -0.572435         1.864149         0.684179
 H        -0.152055        -2.893868         1.217216
 H        -0.742635        -3.291744        -0.349496
 H         0.866205        -2.513313        -0.156065
