19
Iteration:  4033
 C        -3.030365        -1.605836         1.559276
 C        -1.758312        -0.700091         1.137332
 C        -1.996675         0.336659         0.042210
 C        -0.640918         1.180923        -0.040854
 C         0.293790         0.069276         0.104072
 O         1.535483        -0.107756        -0.035571
 C        -0.777001        -1.103258         0.130923
 C        -0.053346        -2.496113         0.124845
 O        -1.665934        -0.708047        -0.938697
 H        -3.696825        -2.075606         0.787899
 H        -2.668190        -2.501122         2.078369
 H        -3.702714        -1.254471         2.322987
 H        -1.295953        -0.205784         2.132484
 H        -2.894648         1.025979        -0.123683
 H        -0.637568         1.567601        -1.041104
 H        -0.537606         1.957029         0.753038
 H         0.493695        -2.547302         1.081904
 H        -0.719280        -3.312432         0.390016
 H         0.530645        -2.817394        -0.770817
