19
Iteration:  2073charge 0 multiplicity 1
 C        -2.876032        -1.696315         1.677416
 C        -1.837084        -0.505034         1.241434
 C        -1.966761         0.388594         0.049465
 C        -0.682937         1.153183         0.045696
 C         0.307460         0.047432         0.049199
 O         1.471462        -0.161167        -0.035759
 C        -0.721194        -1.201594         0.095078
 C        -0.103575        -2.488280        -0.026103
 O        -1.712408        -0.696365        -0.989896
 H        -3.925458        -1.462685         1.588959
 H        -2.636532        -2.581446         1.164248
 H        -2.587610        -1.847138         2.729031
 H        -1.438869        -0.079346         2.221223
 H        -3.070852         0.827656        -0.182513
 H        -0.676240         1.944464        -0.795706
 H        -0.375043         1.798317         0.866805
 H         0.524231        -2.629210         0.882392
 H        -0.747270        -3.370539        -0.120768
 H         0.573603        -2.296908        -0.813228
