19
Iteration:  2394charge 0 multiplicity 1
 C        -3.052903        -1.410464         1.445972
 C        -1.712166        -0.744759         1.194957
 C        -2.009568         0.229339         0.138788
 C        -0.686104         1.140683        -0.057293
 C         0.266235         0.026930         0.084093
 O         1.465193         0.167488        -0.087339
 C        -0.640846        -1.190739         0.206679
 C        -0.162853        -2.655168         0.110268
 O        -1.523806        -0.773335        -0.860807
 H        -3.123221        -2.344825         0.946554
 H        -3.120421        -1.613341         2.472537
 H        -3.871380        -0.816045         1.103051
 H        -1.351583        -0.483176         2.142690
 H        -2.995133         0.727791        -0.087440
 H        -0.754454         1.531410        -1.034122
 H        -0.462570         1.963666         0.712451
 H         0.692675        -2.899622         0.710978
 H        -1.048843        -3.306722         0.331690
 H         0.187767        -2.850460        -0.884324
