19
Iteration:   669
 C        -2.816890        -1.428259         1.654064
 C        -1.732881        -0.605078         1.130967
 C        -2.012752         0.185032        -0.054863
 C        -0.735683         1.092215        -0.194283
 C         0.305926         0.072199         0.050087
 O         1.479664         0.123927         0.348637
 C        -0.640144        -1.168445         0.008819
 C        -0.212526        -2.582401         0.060244
 O        -1.693064        -0.879838        -0.967984
 H        -2.470668        -2.519757         1.670524
 H        -3.112734        -1.088261         2.667101
 H        -3.628569        -1.438051         0.894267
 H        -1.209191        -0.075287         1.973255
 H        -3.017169         0.633708        -0.242626
 H        -0.713027         1.713904        -1.023469
 H        -0.674780         1.652267         0.756581
 H         0.588365        -2.493848         0.766113
 H        -1.065976        -3.268583         0.286561
 H         0.087315        -2.844465        -0.971594
