19
Iteration:   703charge 0 multiplicity 1
 C        -2.869767        -1.517674         1.460595
 C        -1.715804        -0.636361         1.240670
 C        -1.935268         0.346095         0.037193
 C        -0.731643         1.190972        -0.329199
 C         0.242804         0.073677         0.100483
 O         1.433145         0.147893         0.253436
 C        -0.645905        -1.191565         0.092121
 C        -0.153695        -2.768745         0.050073
 O        -1.696926        -0.777696        -0.803957
 H        -2.440351        -2.562302         1.671331
 H        -3.592736        -1.305321         2.290724
 H        -3.527575        -1.569233         0.563891
 H        -1.258283        -0.203613         2.190028
 H        -2.976123         0.807568        -0.167149
 H        -0.630875         1.443253        -1.302925
 H        -0.519969         2.150620         0.230197
 H         0.835094        -2.947184         0.466016
 H        -0.762510        -3.455261         0.689026
 H         0.031551        -3.268065        -0.909984
