19
Iteration:  2887
 C        -2.977797        -1.663112         1.474713
 C        -1.785642        -0.690814         1.210226
 C        -2.018134         0.413588         0.021544
 C        -0.602803         1.197409        -0.189374
 C         0.251316         0.022185         0.021972
 O         1.494819        -0.027611         0.082010
 C        -0.679578        -1.142765         0.211933
 C        -0.152820        -2.567042         0.248070
 O        -1.641240        -0.698578        -0.950354
 H        -3.363361        -2.034808         0.520363
 H        -2.376647        -2.463391         1.935217
 H        -3.833936        -1.423678         2.176628
 H        -1.320874        -0.302511         2.134579
 H        -3.024590         0.921108        -0.189966
 H        -0.572863         1.735294        -1.180109
 H        -0.232473         1.981196         0.462374
 H         0.801246        -2.511962         0.748327
 H        -0.760785        -3.239776         0.803560
 H        -0.159322        -2.911512        -0.781547
