19
Iteration:  4440
 C        -2.942895        -1.498126         1.521965
 C        -1.779077        -0.670445         1.182511
 C        -1.904654         0.359834         0.052834
 C        -0.722418         1.200468        -0.024562
 C         0.278737         0.055158         0.080472
 O         1.464700        -0.086334         0.069527
 C        -0.744726        -1.213757         0.121431
 C        -0.042272        -2.568712         0.105321
 O        -1.698835        -0.725662        -0.982052
 H        -3.425595        -1.729801         0.581249
 H        -2.603352        -2.368429         2.085814
 H        -3.648922        -0.963780         2.161191
 H        -1.270854        -0.367118         2.161179
 H        -2.920373         0.810739        -0.028927
 H        -0.758201         1.334937        -1.146000
 H        -0.505305         1.892946         0.719265
 H         0.756132        -2.346673         0.777411
 H        -0.769896        -3.373093         0.348541
 H         0.406322        -2.909416        -0.816207
