19
Iteration:  1436charge 0 multiplicity 1
 C        -2.754402        -1.621274         1.565088
 C        -1.691224        -0.523024         1.175269
 C        -1.984455         0.317940        -0.077493
 C        -0.721884         1.252812        -0.052852
 C         0.209356         0.004176         0.074684
 O         1.466023        -0.118359         0.071492
 C        -0.701825        -1.155974         0.099275
 C        -0.173179        -2.505354         0.111331
 O        -1.717412        -0.781045        -0.906843
 H        -2.427242        -2.240045         2.385775
 H        -3.569827        -1.130375         2.092452
 H        -3.134673        -2.261787         0.803142
 H        -1.240181        -0.154675         2.099051
 H        -3.025143         0.769761        -0.230810
 H        -0.664628         1.904863        -0.852779
 H        -0.761624         1.706013         0.935163
 H         0.377722        -2.776350         0.972028
 H        -0.976595        -3.208173        -0.084298
 H         0.483052        -2.491244        -0.777313
