19
Iteration:  2911charge 0 multiplicity 1
 C        -2.888451        -1.573981         1.332639
 C        -1.695761        -0.619855         1.212711
 C        -1.951905         0.340627         0.032262
 C        -0.734714         1.194408        -0.085363
 C         0.287813         0.009914         0.056138
 O         1.525697         0.037955         0.053415
 C        -0.672469        -1.197700         0.148030
 C        -0.256800        -2.639302         0.243077
 O        -1.648652        -0.740667        -0.851984
 H        -3.047982        -2.128770         0.369271
 H        -2.680852        -2.259578         2.193960
 H        -3.852883        -1.011059         1.580416
 H        -1.268378        -0.183153         2.161514
 H        -2.928890         0.884995        -0.203089
 H        -0.904462         1.615460        -1.132648
 H        -0.795732         2.078276         0.434858
 H         0.780269        -2.552996         0.639453
 H        -0.822263        -3.306925         0.990557
 H        -0.328517        -3.099572        -0.802351
