19
Iteration:   804
 C        -3.103349        -1.659692         1.609394
 C        -1.824817        -0.658815         1.169594
 C        -1.935172         0.323517         0.054537
 C        -0.698903         1.223964        -0.089502
 C         0.356323         0.108362         0.017505
 O         1.544211         0.120712        -0.079136
 C        -0.700752        -1.219438         0.179357
 C        -0.184460        -2.598357         0.176235
 O        -1.517513        -0.801743        -0.949386
 H        -2.793952        -2.202540         2.528022
 H        -3.899285        -0.958002         2.057401
 H        -3.549967        -2.469777         0.940019
 H        -1.304523        -0.312941         2.119816
 H        -2.884290         0.764991        -0.313427
 H        -0.811446         1.862924        -0.883237
 H        -0.526063         1.971165         0.810101
 H         0.052231        -3.034377         1.176169
 H        -1.013611        -3.201008        -0.158250
 H         0.636849        -2.792584        -0.511136
