19
Iteration:    52charge 0 multiplicity 1
 C        -2.922732        -1.554949         1.592264
 C        -1.708990        -0.745659         1.192322
 C        -2.055286         0.303640         0.035192
 C        -0.739177         1.183349        -0.272875
 C         0.313060         0.031743         0.064249
 O         1.475554         0.136283         0.264452
 C        -0.705354        -1.177583         0.099994
 C        -0.191346        -2.586844         0.040149
 O        -1.565638        -0.773072        -0.928016
 H        -2.482969        -2.378969         2.217393
 H        -3.442186        -0.821398         2.247596
 H        -3.597905        -2.030707         0.860181
 H        -1.280637        -0.452994         2.162411
 H        -3.081241         0.639963        -0.162274
 H        -0.837006         1.560412        -1.412987
 H        -0.491134         2.130397         0.249134
 H         0.829905        -2.580291         0.540488
 H        -0.651648        -3.362705         0.679081
 H        -0.174353        -2.993532        -1.049478
