19
Iteration:  1772
 C        -2.825120        -1.507102         1.626750
 C        -1.685131        -0.591872         1.247731
 C        -1.956269         0.245198         0.025136
 C        -0.664191         1.184840        -0.093792
 C         0.280273        -0.026228         0.096945
 O         1.482857         0.145018         0.055715
 C        -0.757437        -1.216372         0.168364
 C        -0.290155        -2.597123        -0.002575
 O        -1.654906        -0.844279        -0.958343
 H        -2.536568        -1.862336         2.620128
 H        -3.759226        -0.902922         1.596261
 H        -2.890291        -2.378750         0.921076
 H        -1.356839         0.139645         2.068863
 H        -2.901810         0.627836        -0.076986
 H        -0.737254         1.683189        -1.038598
 H        -0.565704         1.807627         0.765969
 H        -0.003307        -3.200384         0.892354
 H        -1.028598        -3.194665        -0.591663
 H         0.539316        -2.465970        -0.811653
