19
Iteration:   905charge 0 multiplicity 1
 C        -2.898086        -1.545681         1.691188
 C        -1.736288        -0.659664         1.143484
 C        -1.966934         0.322014        -0.079833
 C        -0.724164         1.228021        -0.007481
 C         0.194954        -0.001236         0.066941
 O         1.402386        -0.024419         0.072279
 C        -0.741132        -1.231153         0.066249
 C        -0.110108        -2.537816         0.113997
 O        -1.557551        -0.739205        -0.966315
 H        -2.494308        -2.302513         2.383806
 H        -3.697515        -0.998828         2.212788
 H        -3.289104        -2.074261         0.802492
 H        -1.216242        -0.112576         1.957615
 H        -2.910284         0.755999        -0.160212
 H        -0.527326         1.740195        -0.994512
 H        -0.701760         1.865759         0.810336
 H         0.400827        -2.783383         1.017993
 H        -0.711558        -3.381357        -0.256238
 H         0.636688        -2.424882        -0.682730
