19
Iteration:   958charge 0 multiplicity 1
 C        -2.889666        -1.596386         1.594040
 C        -1.735794        -0.675283         1.283884
 C        -1.936853         0.338571        -0.034252
 C        -0.608950         1.157760        -0.188219
 C         0.270682         0.045073         0.116016
 O         1.447689         0.215719         0.165525
 C        -0.728632        -1.226682         0.122575
 C        -0.231524        -2.662292        -0.015623
 O        -1.646257        -0.791605        -0.914725
 H        -2.705610        -2.173404         2.522831
 H        -3.789311        -0.927397         1.724646
 H        -3.205623        -2.135866         0.662216
 H        -1.252898        -0.343520         2.263515
 H        -2.832212         0.868036        -0.065636
 H        -0.635316         1.485114        -1.218514
 H        -0.336140         1.927665         0.535008
 H         0.772066        -2.904116         0.355994
 H        -1.016734        -3.255856         0.484830
 H        -0.261942        -2.928071        -1.088860
