19
Iteration:  2241charge 0 multiplicity 1
 C        -2.855180        -1.502627         1.683839
 C        -1.718054        -0.575607         1.248952
 C        -1.981256         0.256551         0.059667
 C        -0.702157         1.220709        -0.123580
 C         0.311351        -0.009793         0.013290
 O         1.461732         0.011593         0.236158
 C        -0.721095        -1.153327         0.084866
 C        -0.136307        -2.588876        -0.124895
 O        -1.729171        -0.835224        -0.947766
 H        -2.795282        -2.048095         2.580797
 H        -3.694782        -0.801209         1.653336
 H        -3.095763        -2.152700         0.860209
 H        -1.166865        -0.116143         2.109786
 H        -3.015505         0.671471        -0.047909
 H        -0.554109         1.704288        -1.050142
 H        -0.453361         2.001574         0.670151
 H         0.617217        -2.983549         0.492345
 H        -0.944429        -3.286263        -0.112906
 H         0.240750        -2.617153        -1.143988
