19
Iteration:  1641
 C        -2.938933        -1.585450         1.660363
 C        -1.811905        -0.618538         1.238837
 C        -1.923715         0.375096         0.007384
 C        -0.710810         1.237293        -0.093595
 C         0.287850        -0.081387         0.063003
 O         1.536243         0.155490         0.025464
 C        -0.714458        -1.211694         0.133717
 C        -0.219041        -2.645280         0.066684
 O        -1.615665        -0.799788        -0.924961
 H        -2.760565        -2.686976         1.751224
 H        -3.632439        -1.191953         2.435888
 H        -3.617531        -1.654329         0.756328
 H        -1.285959        -0.367584         2.244117
 H        -2.857717         0.746417        -0.248860
 H        -0.541449         1.654269        -1.140159
 H        -0.478111         2.111081         0.479122
 H         0.857359        -2.691923         0.369385
 H        -0.764933        -3.478665         0.615033
 H        -0.044620        -2.805697        -1.059365
