19
Iteration:  1508charge 0 multiplicity 1
 C        -2.895752        -1.457351         1.531580
 C        -1.636580        -0.632114         1.224806
 C        -1.997985         0.259754        -0.002149
 C        -0.779575         1.183393        -0.033275
 C         0.316088         0.016799         0.008585
 O         1.529194         0.125328         0.036332
 C        -0.687249        -1.231969         0.156113
 C        -0.204781        -2.664550         0.049014
 O        -1.706000        -0.780835        -0.878516
 H        -2.561362        -2.479215         1.908197
 H        -3.508836        -1.083486         2.393010
 H        -3.465744        -1.635479         0.587281
 H        -1.226713        -0.098244         2.130087
 H        -2.980952         0.645845        -0.104749
 H        -0.549431         1.630678        -1.082384
 H        -0.734104         1.841548         0.860770
 H         0.130573        -2.832684         1.119604
 H        -1.056933        -3.377840        -0.191518
 H         0.643406        -2.845310        -0.638608
