19
Iteration:   599charge 0 multiplicity 1
 C        -2.841743        -1.550359         1.620614
 C        -1.761922        -0.559183         1.166742
 C        -2.012495         0.269743        -0.108969
 C        -0.761257         1.269747        -0.113763
 C         0.311931         0.082415         0.094776
 O         1.529769        -0.015208         0.145602
 C        -0.746587        -1.148443         0.127513
 C        -0.101165        -2.638495         0.109363
 O        -1.724468        -0.855601        -0.968384
 H        -2.525695        -1.907079         2.584343
 H        -3.779834        -1.030366         1.773621
 H        -2.852001        -2.446140         1.013473
 H        -1.241933        -0.001698         1.952892
 H        -2.947320         0.771294        -0.324180
 H        -0.633836         1.958054        -1.029749
 H        -0.756115         1.876801         0.756828
 H         0.048287        -2.884455         1.200429
 H        -0.821820        -3.334908        -0.318916
 H         0.810736        -2.814569        -0.477458
