19
Iteration:  4976charge 0 multiplicity 1
 C        -2.921130        -1.612942         1.366407
 C        -1.783767        -0.600404         1.181062
 C        -1.972617         0.354571        -0.041855
 C        -0.624276         1.180720         0.020282
 C         0.299726         0.020824         0.159465
 O         1.504109        -0.018384        -0.132106
 C        -0.725707        -1.167221         0.219075
 C        -0.205132        -2.563083         0.219111
 O        -1.630414        -0.752016        -0.886210
 H        -3.718899        -1.796842         0.572224
 H        -2.682629        -2.738637         1.691898
 H        -3.413716        -1.481177         2.403833
 H        -1.464673        -0.051545         2.164870
 H        -2.901710         0.922435        -0.096571
 H        -0.513774         1.821738        -0.855359
 H        -0.697030         1.934817         0.873074
 H         0.777348        -2.500405         0.742861
 H        -0.841772        -3.103535         0.803435
 H        -0.093983        -3.067692        -0.773419
