19
Iteration:   756
 C        -2.835683        -1.531191         1.539420
 C        -1.814105        -0.526722         1.140122
 C        -2.020606         0.347684        -0.050493
 C        -0.780189         1.324461         0.045626
 C         0.217717        -0.009251         0.040471
 O         1.441145        -0.106890         0.078163
 C        -0.666291        -1.177088         0.166737
 C        -0.045296        -2.599449         0.110741
 O        -1.626656        -0.847423        -0.957689
 H        -2.678650        -2.015000         2.557784
 H        -3.848738        -1.074915         1.584577
 H        -2.780428        -2.348688         0.772985
 H        -1.305807        -0.028417         2.030019
 H        -3.039177         0.724529        -0.359495
 H        -0.620171         1.942687        -0.934905
 H        -0.757471         1.956780         0.978487
 H         0.877429        -2.598456         0.689129
 H        -0.656346        -3.478390         0.491696
 H         0.335949        -2.795289        -0.926360
