19
Iteration:  3603charge 0 multiplicity 1
 C        -2.883202        -1.544434         1.606769
 C        -1.688746        -0.596835         1.229085
 C        -1.966856         0.303357         0.050179
 C        -0.626366         1.189639        -0.240190
 C         0.292522        -0.006467        -0.002481
 O         1.491369         0.045089         0.255163
 C        -0.735201        -1.212822         0.098084
 C        -0.210484        -2.583257         0.006296
 O        -1.724834        -0.771056        -0.927071
 H        -3.018403        -2.221736         0.770016
 H        -2.408778        -2.029944         2.427514
 H        -3.874052        -1.136867         1.834216
 H        -1.447884        -0.113536         2.245591
 H        -2.923344         0.773464         0.065997
 H        -0.599339         1.604188        -1.325087
 H        -0.764825         1.917172         0.600980
 H         0.323411        -2.963888         0.907258
 H        -1.014401        -3.256646        -0.179404
 H         0.512552        -2.584257        -0.840755
