19
Iteration:  3952charge 0 multiplicity 1
 C        -2.951431        -1.674326         1.644539
 C        -1.729112        -0.647070         1.224266
 C        -1.987394         0.365059         0.045988
 C        -0.705683         1.220538        -0.155659
 C         0.317686        -0.033098         0.035730
 O         1.547211         0.109460         0.148215
 C        -0.736779        -1.161453         0.094926
 C        -0.277223        -2.651150         0.037497
 O        -1.581035        -0.719148        -0.969423
 H        -3.198426        -2.320139         0.820380
 H        -2.448377        -2.131807         2.506536
 H        -3.794120        -0.967006         1.831416
 H        -1.462819        -0.173632         2.216259
 H        -2.953899         0.688438        -0.308939
 H        -0.642606         1.772414        -1.065109
 H        -0.320779         1.816017         0.626757
 H         0.610846        -2.726945         0.629700
 H        -1.170244        -3.218192         0.398279
 H        -0.005517        -3.039744        -0.918488
