19
Iteration:  4119charge 0 multiplicity 1
 C        -2.959649        -1.619014         1.581627
 C        -1.711467        -0.673867         1.205395
 C        -1.888263         0.389422         0.087498
 C        -0.648123         1.178086        -0.112697
 C         0.278722        -0.041550        -0.026443
 O         1.435340         0.109491         0.079383
 C        -0.707642        -1.241900         0.173978
 C        -0.173419        -2.660342         0.071380
 O        -1.646473        -0.685844        -0.939108
 H        -3.518451        -1.991767         0.674802
 H        -2.585627        -2.228229         2.414908
 H        -3.668783        -0.957376         2.171846
 H        -1.399488        -0.071673         1.984737
 H        -2.946930         0.761916        -0.035347
 H        -0.733710         1.556820        -1.078432
 H        -0.477810         2.108964         0.434319
 H         0.115666        -2.931092         1.084648
 H        -1.040826        -3.243841        -0.204693
 H         0.585196        -2.788815        -0.735552
