19
Iteration:   385
 C        -2.793765        -1.536874         1.824436
 C        -1.677668        -0.643770         1.120472
 C        -2.053963         0.338277        -0.095293
 C        -0.771232         1.196168        -0.180826
 C         0.221214        -0.066941         0.094142
 O         1.402496         0.074057         0.324870
 C        -0.772829        -1.236398        -0.011600
 C        -0.080328        -2.629794         0.079920
 O        -1.621156        -0.696608        -1.115200
 H        -2.457587        -2.049823         2.741775
 H        -3.676331        -0.983836         2.138045
 H        -3.172558        -2.361560         1.191484
 H        -1.032903        -0.123917         1.840859
 H        -3.101145         0.857511        -0.173976
 H        -0.515616         1.406921        -1.286748
 H        -0.451777         2.067454         0.451727
 H         0.467547        -2.562808         1.055534
 H        -0.754287        -3.451378         0.210821
 H         0.558155        -2.920830        -0.778490
