19
Iteration:  2000
 C        -2.809238        -1.532596         1.619860
 C        -1.653919        -0.646743         1.245265
 C        -1.997349         0.322196         0.061882
 C        -0.661809         1.163354        -0.146359
 C         0.313245         0.079894         0.023822
 O         1.537159         0.148307         0.181996
 C        -0.643199        -1.206645        -0.006817
 C        -0.329072        -2.668986        -0.106961
 O        -1.775279        -0.840360        -0.821038
 H        -3.276917        -1.222550         2.570103
 H        -3.630744        -1.565668         0.838048
 H        -2.489810        -2.602315         1.734904
 H        -1.091798        -0.354725         2.122765
 H        -2.936361         0.855969        -0.023635
 H        -0.529123         1.800828        -1.050085
 H        -0.831986         1.938788         0.623138
 H        -0.230656        -2.863605         0.950881
 H        -1.198708        -3.180372        -0.457974
 H         0.634110        -2.895514        -0.643718
