19
Iteration:  4714
 C        -3.032810        -1.636257         1.506791
 C        -1.724045        -0.634158         1.255575
 C        -1.995030         0.371723         0.058316
 C        -0.647870         1.239966        -0.052744
 C         0.280468         0.004902         0.039369
 O         1.503652        -0.026369         0.023603
 C        -0.704843        -1.181594         0.169962
 C        -0.160342        -2.558957         0.089379
 O        -1.587101        -0.769223        -0.956076
 H        -3.165609        -2.341524         0.743058
 H        -3.041580        -2.011660         2.502506
 H        -3.906316        -1.008772         1.522617
 H        -1.537994        -0.128711         2.151735
 H        -2.951427         0.739677        -0.231175
 H        -0.578181         1.989629        -0.839515
 H        -0.325677         1.960965         0.703796
 H         0.704189        -2.666374         0.804083
 H        -0.813241        -3.272218         0.506577
 H        -0.000784        -2.840482        -1.021397
