19
Iteration:   671
 C        -2.812313        -1.422974         1.630146
 C        -1.723262        -0.619648         1.129113
 C        -1.993673         0.173468        -0.033243
 C        -0.738409         1.084396        -0.206099
 C         0.307089         0.073931         0.035595
 O         1.474532         0.130681         0.351926
 C        -0.652453        -1.143911         0.015418
 C        -0.229430        -2.579029         0.070297
 O        -1.692376        -0.889501        -0.959023
 H        -2.489588        -2.519241         1.646152
 H        -3.130080        -1.088215         2.654233
 H        -3.621080        -1.409151         0.867784
 H        -1.199636        -0.050937         1.938344
 H        -3.052345         0.647585        -0.209715
 H        -0.699533         1.728765        -1.005257
 H        -0.638353         1.674603         0.813626
 H         0.648557        -2.525006         0.730436
 H        -1.046900        -3.319336         0.272030
 H         0.053308        -2.832814        -0.960818
