19
Iteration:    54charge 0 multiplicity 1
 C        -2.914774        -1.559331         1.613902
 C        -1.709179        -0.752340         1.155601
 C        -2.051012         0.312073         0.032609
 C        -0.749514         1.210343        -0.268130
 C         0.315671         0.022782         0.086306
 O         1.471045         0.129501         0.262425
 C        -0.733765        -1.181299         0.090739
 C        -0.180415        -2.592272         0.046112
 O        -1.556978        -0.768603        -0.928886
 H        -2.474637        -2.349863         2.233587
 H        -3.403784        -0.788300         2.217247
 H        -3.598004        -2.024361         0.899706
 H        -1.277573        -0.453923         2.087555
 H        -3.068826         0.650811        -0.142277
 H        -0.825624         1.542743        -1.367317
 H        -0.528351         2.067081         0.194125
 H         0.847577        -2.574788         0.524426
 H        -0.653981        -3.379036         0.682400
 H        -0.135026        -3.018055        -1.021563
