19
Iteration:  1093
 C        -2.871118        -1.475707         1.468933
 C        -1.797540        -0.518450         1.236391
 C        -1.959179         0.220524         0.025750
 C        -0.656518         1.141804         0.061552
 C         0.316782         0.049060         0.012680
 O         1.500805         0.186336         0.043631
 C        -0.625936        -1.218581         0.149305
 C        -0.229304        -2.716546         0.039144
 O        -1.700433        -0.856232        -0.882942
 H        -2.880512        -2.129645         2.352671
 H        -3.839173        -0.962218         1.532023
 H        -2.989508        -2.037444         0.534048
 H        -1.341635        -0.119462         2.172728
 H        -2.902884         0.802366        -0.220495
 H        -0.832601         1.720101        -0.895703
 H        -0.564149         1.772619         0.864348
 H         0.836527        -2.689859         0.290965
 H        -0.759579        -3.472758         0.607435
 H        -0.425284        -2.986508        -1.005953
