19
Iteration:  1977
 C        -2.814062        -1.553415         1.643187
 C        -1.632084        -0.655429         1.237331
 C        -2.007066         0.368093         0.052742
 C        -0.729243         1.159175        -0.147195
 C         0.272618         0.000059        -0.023576
 O         1.436428        -0.013300         0.177931
 C        -0.717369        -1.188289         0.183948
 C        -0.179894        -2.588770        -0.044596
 O        -1.707226        -0.727785        -0.949379
 H        -2.932824        -1.530852         2.734165
 H        -3.805297        -1.365531         1.203934
 H        -2.613305        -2.631493         1.418649
 H        -1.145099        -0.194301         2.117271
 H        -2.999483         0.938454        -0.036893
 H        -0.632979         1.558720        -1.235554
 H        -0.496690         2.107617         0.395126
 H         0.253854        -2.971479         0.860615
 H        -0.972435        -3.209979        -0.410053
 H         0.587939        -2.380816        -0.797142
