19
Iteration:  1147
 C        -2.843234        -1.653501         1.532771
 C        -1.793756        -0.590930         1.219428
 C        -2.050714         0.420467         0.086951
 C        -0.713203         1.184992        -0.084672
 C         0.232206        -0.017528         0.069378
 O         1.397291        -0.167838        -0.009437
 C        -0.749570        -1.169206         0.153847
 C        -0.020676        -2.500917         0.180262
 O        -1.566276        -0.626436        -0.995271
 H        -2.358810        -2.515645         2.041867
 H        -3.678176        -1.222561         2.125431
 H        -3.419239        -1.992651         0.650467
 H        -1.208923        -0.310795         2.143794
 H        -3.056800         0.838326        -0.094123
 H        -0.640410         1.472591        -1.212775
 H        -0.830442         1.942561         0.650831
 H         0.539120        -2.655211         1.103959
 H        -0.819862        -3.219381         0.113274
 H         0.672186        -2.744943        -0.621965
