19
Iteration:   799charge 0 multiplicity 1
 C        -3.093007        -1.626900         1.641786
 C        -1.800603        -0.726048         1.184429
 C        -1.929441         0.301478         0.012599
 C        -0.691225         1.218922        -0.007494
 C         0.316515         0.098322         0.008737
 O         1.515943         0.104364        -0.068968
 C        -0.708208        -1.215332         0.138587
 C        -0.162991        -2.541235         0.192472
 O        -1.513318        -0.801654        -0.986011
 H        -2.780127        -2.112128         2.599290
 H        -3.976927        -1.047401         1.908339
 H        -3.489110        -2.424531         1.044899
 H        -1.412874        -0.259053         2.118933
 H        -2.847105         0.791771        -0.400209
 H        -0.735180         1.966153        -0.929938
 H        -0.331329         2.013717         0.687101
 H         0.116929        -2.937052         1.156531
 H        -1.115721        -3.123589        -0.086647
 H         0.595308        -2.858812        -0.556291
