19
Iteration:   620charge 0 multiplicity 1
 C        -2.817375        -1.565990         1.814959
 C        -1.813233        -0.605952         1.129967
 C        -2.025509         0.277831        -0.131918
 C        -0.775049         1.130185        -0.125472
 C         0.205901        -0.072267         0.066897
 O         1.429533        -0.077744         0.201846
 C        -0.746241        -1.086362         0.127334
 C        -0.105527        -2.444350         0.060722
 O        -1.509330        -0.750249        -1.053596
 H        -2.249027        -2.076591         2.546635
 H        -3.560283        -0.941953         2.316622
 H        -3.206987        -2.307145         1.139878
 H        -1.407774         0.035128         1.908695
 H        -3.016141         0.662679        -0.444136
 H        -0.550674         1.468677        -1.202736
 H        -0.616413         1.948317         0.600694
 H         0.176950        -2.663075         1.124337
 H        -0.885462        -3.097313        -0.302394
 H         0.744195        -2.421221        -0.647189
