19
Iteration:  1039charge 0 multiplicity 1
 C        -2.925484        -1.601599         1.734988
 C        -1.811708        -0.578004         1.161879
 C        -2.067692         0.342328        -0.109566
 C        -0.741469         1.155068        -0.073944
 C         0.287663        -0.042124         0.102352
 O         1.523877        -0.013509         0.138154
 C        -0.695481        -1.178842         0.118770
 C        -0.116871        -2.567049         0.051341
 O        -1.584051        -0.700723        -1.030590
 H        -2.513662        -2.531557         2.175329
 H        -3.575058        -1.170820         2.490683
 H        -3.518982        -1.975817         0.897744
 H        -1.280093        -0.147257         2.024967
 H        -3.090512         0.848924        -0.267027
 H        -0.608885         1.763517        -1.012383
 H        -0.591415         1.879406         0.695610
 H         0.983299        -2.406755         0.129127
 H        -0.397073        -3.146475         0.941990
 H        -0.362087        -3.080291        -0.906134
