19
Iteration:  4169
 C        -2.848299        -1.472478         1.585274
 C        -1.766961        -0.584632         1.193743
 C        -2.087235         0.384735        -0.031422
 C        -0.665407         1.175017        -0.063355
 C         0.278396         0.015090         0.097311
 O         1.491047        -0.127929         0.178695
 C        -0.702007        -1.145433         0.100038
 C        -0.048576        -2.539761        -0.008184
 O        -1.768555        -0.872053        -0.932302
 H        -3.448518        -1.597171         0.707646
 H        -2.378593        -2.356991         1.956694
 H        -3.404966        -1.123692         2.413392
 H        -1.253076         0.007732         2.027720
 H        -3.058502         0.816418        -0.227224
 H        -0.450489         1.820762        -0.998222
 H        -0.569244         1.956941         0.722825
 H         0.837680        -2.625537         0.633491
 H        -0.749932        -3.414879         0.129330
 H         0.218939        -2.522605        -1.059887
