19
Iteration:  3769
 C        -2.962317        -1.672128         1.559244
 C        -1.787346        -0.600778         1.203119
 C        -2.004611         0.370696         0.023562
 C        -0.661785         1.264170         0.032603
 C         0.246268        -0.002656         0.048543
 O         1.496698        -0.101258        -0.038388
 C        -0.646657        -1.154696         0.121727
 C        -0.136663        -2.522784         0.177889
 O        -1.642606        -0.702364        -0.986693
 H        -2.936936        -2.493331         0.860907
 H        -2.823143        -2.038156         2.557491
 H        -3.991749        -1.258490         1.521694
 H        -1.160457        -0.206202         2.029400
 H        -2.996752         0.781756        -0.296544
 H        -0.757101         1.791618        -0.934236
 H        -0.485923         1.998306         0.880876
 H         0.804114        -2.699906         0.736909
 H        -0.821883        -3.326535         0.547566
 H         0.170931        -2.909055        -0.783851
