19
Iteration:   150charge 0 multiplicity 1
 C        -2.927478        -1.647733         1.434601
 C        -1.687419        -0.633777         1.190323
 C        -1.898495         0.369291         0.128673
 C        -0.767190         1.169405        -0.291746
 C         0.326811         0.048332        -0.006419
 O         1.495142         0.181345         0.178716
 C        -0.763556        -1.235101         0.176600
 C        -0.186772        -2.573807         0.150683
 O        -1.652012        -0.862850        -0.852249
 H        -2.581183        -2.474468         2.116275
 H        -3.718630        -1.014555         1.886824
 H        -3.424403        -2.086163         0.531412
 H        -1.271826        -0.413427         2.200963
 H        -2.874337         0.833426         0.121890
 H        -0.835930         1.704626        -1.368636
 H        -0.473552         2.144472         0.235535
 H         0.200061        -2.864173         1.143940
 H        -1.011840        -3.268044        -0.071897
 H         0.582716        -2.653071        -0.680910
