19
Iteration:  3959
 C        -2.939819        -1.609790         1.621063
 C        -1.789217        -0.661829         1.184487
 C        -1.943220         0.314413         0.093818
 C        -0.693463         1.202574        -0.176026
 C         0.333258         0.066542        -0.011681
 O         1.572464         0.102232         0.139909
 C        -0.692379        -1.187479         0.140947
 C        -0.308329        -2.640249         0.038967
 O        -1.603348        -0.737470        -0.946820
 H        -3.346299        -2.182803         0.751944
 H        -2.801722        -2.336108         2.463947
 H        -3.872287        -1.163308         1.974799
 H        -1.470468        -0.166255         2.073797
 H        -2.979609         0.623803        -0.061201
 H        -0.526494         1.799172        -1.157171
 H        -0.544685         1.781507         0.803720
 H         0.632816        -2.743295         0.674721
 H        -0.913458        -3.437054         0.444794
 H        -0.048514        -2.853372        -1.033988
