19
Iteration:  1764charge 0 multiplicity 1
 C        -2.788437        -1.479962         1.624323
 C        -1.670667        -0.632252         1.230302
 C        -1.989203         0.276800        -0.010267
 C        -0.755534         1.143432        -0.119062
 C         0.310596         0.035342         0.022029
 O         1.505737         0.144744         0.087329
 C        -0.687913        -1.221557         0.251944
 C        -0.364421        -2.623272        -0.040714
 O        -1.638445        -0.843104        -0.899487
 H        -2.729931        -1.878344         2.607308
 H        -3.762463        -1.002467         1.539568
 H        -2.807480        -2.278039         0.881648
 H        -1.249121        -0.144220         2.132389
 H        -2.967344         0.758594        -0.242391
 H        -0.544665         1.703674        -0.991762
 H        -0.607444         1.830961         0.774533
 H        -0.016759        -3.265760         0.712865
 H        -1.148337        -3.070751        -0.574529
 H         0.535392        -2.500379        -0.619101
