19
Iteration:  4358charge 0 multiplicity 1
 C        -2.944603        -1.615241         1.544884
 C        -1.721232        -0.620223         1.234587
 C        -1.890467         0.291427         0.071259
 C        -0.698671         1.190132        -0.104399
 C         0.288284         0.063403         0.005706
 O         1.489147         0.056969        -0.015393
 C        -0.732277        -1.173232         0.181718
 C        -0.312348        -2.607030         0.144842
 O        -1.524561        -0.726230        -0.956812
 H        -3.401672        -2.131208         0.707491
 H        -2.693891        -2.454853         2.159320
 H        -3.763968        -1.097355         1.993176
 H        -1.337717        -0.275410         2.170313
 H        -2.940663         0.576581         0.087674
 H        -0.681869         1.865268        -0.947990
 H        -0.469364         1.879019         0.786828
 H        -0.290109        -3.148821         1.108790
 H        -1.108035        -3.176091        -0.269206
 H         0.628062        -2.711637        -0.465833
