19
Iteration:  1571
 C        -2.913345        -1.683492         1.600259
 C        -1.766181        -0.602490         1.168125
 C        -2.003837         0.400868         0.031219
 C        -0.652748         1.183327        -0.010695
 C         0.227712        -0.017581        -0.034285
 O         1.507030        -0.053148         0.026354
 C        -0.675120        -1.180707         0.235866
 C        -0.123785        -2.528911         0.094959
 O        -1.720839        -0.706598        -0.989817
 H        -2.577496        -2.023225         2.580407
 H        -3.860504        -1.138756         1.702183
 H        -2.944122        -2.591839         0.976614
 H        -1.404290        -0.099945         2.144801
 H        -2.963074         1.002738        -0.078154
 H        -0.478489         1.587547        -1.010988
 H        -0.504409         2.059993         0.603317
 H         0.936334        -2.547213         0.555309
 H        -0.788409        -3.265934         0.593286
 H         0.117558        -2.719394        -0.956610
