19
Iteration:  1990
 C        -2.825319        -1.577116         1.655367
 C        -1.658760        -0.620849         1.253152
 C        -1.922767         0.280413         0.089137
 C        -0.667171         1.245222        -0.150769
 C         0.291830         0.040851         0.055335
 O         1.490446         0.091032         0.174534
 C        -0.711245        -1.183425         0.010808
 C        -0.276775        -2.573254        -0.062144
 O        -1.772241        -0.844127        -0.903677
 H        -3.234252        -1.352215         2.667076
 H        -3.628435        -1.261622         0.907151
 H        -2.548397        -2.650485         1.517112
 H        -1.144175        -0.134600         2.060908
 H        -2.883146         0.622474        -0.024393
 H        -0.764398         1.520021        -1.196537
 H        -0.332315         2.005894         0.608139
 H        -0.014219        -3.086013         0.881597
 H        -1.103684        -3.153511        -0.481982
 H         0.631648        -2.838045        -0.753295
