19
Iteration:  2489charge 0 multiplicity 1
 C        -2.824261        -1.597188         1.569982
 C        -1.686139        -0.644978         1.147827
 C        -2.050626         0.352284        -0.001651
 C        -0.729378         1.144747        -0.161103
 C         0.263809         0.012946         0.008671
 O         1.505273        -0.073060         0.208008
 C        -0.721401        -1.170531         0.143060
 C        -0.130926        -2.485762         0.168243
 O        -1.703827        -0.730117        -0.989269
 H        -3.601398        -1.374833         0.813274
 H        -2.603644        -2.740586         1.598411
 H        -3.233420        -1.311915         2.571754
 H        -1.360322        -0.059351         2.089798
 H        -3.061908         0.882449        -0.170674
 H        -0.709394         1.695652        -1.094416
 H        -0.592218         1.948503         0.612506
 H         0.375700        -2.813140         1.086447
 H        -0.945663        -3.214419        -0.134861
 H         0.685018        -2.541660        -0.646851
