19
Iteration:  3502
 C        -2.863618        -1.644849         1.494601
 C        -1.741821        -0.500903         1.185844
 C        -2.044447         0.370427        -0.077221
 C        -0.688570         1.232318        -0.041694
 C         0.243830         0.001264         0.069264
 O         1.470761        -0.073308         0.019759
 C        -0.737778        -1.192487         0.168251
 C        -0.190783        -2.563907         0.215941
 O        -1.582523        -0.733131        -0.947111
 H        -3.534914        -1.794431         0.609947
 H        -2.381264        -2.607272         1.673885
 H        -3.427598        -1.320061         2.336430
 H        -1.312766        -0.261678         2.187873
 H        -3.060304         0.648966        -0.231176
 H        -0.368399         1.884083        -0.878037
 H        -0.473979         1.578016         0.944608
 H         0.891934        -2.457155         0.499894
 H        -0.764599        -3.144514         1.001474
 H        -0.273961        -3.080032        -0.768300
