19
Iteration:  1833charge 0 multiplicity 1
 C        -2.835751        -1.549166         1.512429
 C        -1.704519        -0.641884         1.219308
 C        -2.015768         0.414073        -0.011029
 C        -0.689890         1.160719        -0.014989
 C         0.190380        -0.015926         0.088869
 O         1.432269        -0.083895        -0.031693
 C        -0.763595        -1.174521         0.106924
 C        -0.036668        -2.500536         0.163520
 O        -1.677077        -0.782258        -0.879070
 H        -2.614495        -2.632006         1.685126
 H        -3.390181        -1.444381         2.442172
 H        -3.596412        -1.477836         0.739591
 H        -1.277070        -0.127296         2.065894
 H        -2.965196         0.964383        -0.495343
 H        -0.580333         1.814346        -0.984942
 H        -0.590015         1.999775         0.714056
 H         0.969643        -2.551829         0.593130
 H        -0.720470        -3.254345         0.586331
 H         0.176096        -2.788528        -0.829111
