19
Iteration:  3712
 C        -3.048905        -1.483322         1.454159
 C        -1.739074        -0.683004         1.256608
 C        -1.976824         0.269260         0.084947
 C        -0.702718         1.191559        -0.148376
 C         0.276217         0.036866         0.101934
 O         1.542762         0.019574        -0.016118
 C        -0.632096        -1.208595         0.226882
 C        -0.161835        -2.587676         0.031605
 O        -1.608640        -0.749243        -0.846126
 H        -3.415628        -2.118457         0.630447
 H        -2.829051        -2.250301         2.247106
 H        -3.892744        -0.861460         1.880345
 H        -1.321084        -0.250074         2.211757
 H        -2.974791         0.645572        -0.101840
 H        -0.950992         1.740139        -1.111563
 H        -0.554322         2.009562         0.563759
 H         0.715278        -2.621318         0.864491
 H        -0.993795        -3.288497         0.263986
 H         0.330700        -2.790533        -1.019248
