19
Iteration:  1353
 C        -2.886683        -1.469506         1.490323
 C        -1.689711        -0.593029         1.254215
 C        -2.002437         0.246538        -0.077066
 C        -0.734853         1.084485        -0.040386
 C         0.343714         0.069090         0.041153
 O         1.506374         0.196661         0.082397
 C        -0.627271        -1.221579         0.229276
 C        -0.284768        -2.672859        -0.046764
 O        -1.667844        -0.853945        -0.813108
 H        -2.542211        -2.408005         1.970983
 H        -3.560068        -0.834473         2.142551
 H        -3.513034        -1.625831         0.586134
 H        -1.216280        -0.281544         2.198853
 H        -2.920581         0.787389        -0.185357
 H        -0.742072         1.824757        -0.884562
 H        -0.551075         1.857999         0.742451
 H         0.759213        -2.842270         0.371719
 H        -0.994470        -3.370511         0.389567
 H        -0.318545        -2.946190        -1.120055
