19
Iteration:  4330
 C        -2.869582        -1.503955         1.470405
 C        -1.703477        -0.560817         1.149369
 C        -1.939031         0.316632        -0.040477
 C        -0.715084         1.145419         0.043715
 C         0.297377         0.042895         0.103365
 O         1.531122         0.017775         0.000824
 C        -0.739119        -1.201184         0.130321
 C        -0.120926        -2.643057         0.140381
 O        -1.781579        -0.785914        -0.889466
 H        -3.567309        -1.656647         0.599367
 H        -2.640934        -2.500162         1.977281
 H        -3.570386        -0.956249         2.219166
 H        -1.281547        -0.149910         2.110025
 H        -2.893577         0.815316        -0.141681
 H        -0.543382         1.805086        -0.857072
 H        -0.819141         1.857486         0.814639
 H         0.212187        -3.060650         1.109138
 H        -0.882307        -3.367651        -0.326229
 H         0.701532        -2.686356        -0.529128
