19
Iteration:  1716charge 0 multiplicity 1
 C        -2.828636        -1.606120         1.614583
 C        -1.612210        -0.648102         1.163833
 C        -2.008555         0.369773         0.005078
 C        -0.688208         1.102814        -0.152408
 C         0.283443        -0.065376         0.022465
 O         1.492165         0.099907         0.144931
 C        -0.808561        -1.193568         0.119456
 C        -0.191739        -2.565090         0.072322
 O        -1.741068        -0.697721        -0.915456
 H        -2.527042        -2.260698         2.500581
 H        -3.630131        -0.983642         2.085567
 H        -3.225629        -2.187179         0.750436
 H        -1.063840        -0.229475         2.109043
 H        -2.880044         0.895420        -0.217554
 H        -0.663922         1.622158        -1.159746
 H        -0.496992         1.890885         0.525742
 H         0.188332        -2.977474         1.076553
 H        -1.046749        -3.257548        -0.292687
 H         0.806553        -2.713526        -0.469076
