19
Iteration:  3489charge 0 multiplicity 1
 C        -2.872290        -1.578498         1.431060
 C        -1.783987        -0.637816         1.186854
 C        -1.928128         0.322418         0.036658
 C        -0.711108         1.178472        -0.023306
 C         0.249165         0.008231         0.015673
 O         1.498339        -0.058632         0.009713
 C        -0.684781        -1.113561         0.206071
 C        -0.224554        -2.546423         0.242454
 O        -1.616961        -0.734031        -0.956905
 H        -3.538220        -1.744048         0.550893
 H        -2.360145        -2.538794         1.695434
 H        -3.526594        -1.456760         2.313934
 H        -1.497892         0.059999         1.948181
 H        -2.824971         0.956211        -0.227110
 H        -0.809765         1.681894        -0.942418
 H        -0.640527         1.946824         0.674685
 H         0.869142        -2.597088         0.483422
 H        -0.743644        -3.260773         1.028115
 H        -0.328734        -2.997516        -0.792588
