19
Iteration:  2529
 C        -2.920210        -1.421182         1.591323
 C        -1.705957        -0.642509         1.213358
 C        -1.992770         0.345722         0.002436
 C        -0.746971         1.200628        -0.116141
 C         0.257356         0.051285         0.078578
 O         1.507359         0.177613         0.216119
 C        -0.658395        -1.193536         0.164312
 C        -0.192668        -2.807798        -0.073588
 O        -1.647620        -0.892362        -0.924060
 H        -3.544529        -1.623753         0.732101
 H        -2.797693        -2.337334         2.160838
 H        -3.485745        -0.755659         2.256653
 H        -1.084191        -0.262588         2.007630
 H        -2.959124         0.745885        -0.135935
 H        -0.487714         1.612546        -1.173810
 H        -0.507775         2.038995         0.544511
 H         0.257857        -3.424004         0.700662
 H        -1.029162        -3.228451        -0.544533
 H         0.627061        -2.758304        -0.810784
