19
Iteration:   904charge 0 multiplicity 1
 C        -2.893534        -1.548136         1.689271
 C        -1.744294        -0.667432         1.138096
 C        -1.968975         0.327130        -0.078155
 C        -0.716132         1.226025        -0.014071
 C         0.199971        -0.012617         0.071824
 O         1.401523        -0.019899         0.069249
 C        -0.755400        -1.223023         0.064610
 C        -0.108323        -2.532257         0.122835
 O        -1.559877        -0.738022        -0.969141
 H        -2.510924        -2.325898         2.375088
 H        -3.681295        -0.977248         2.237816
 H        -3.296983        -2.103961         0.795917
 H        -1.183031        -0.136593         1.964247
 H        -2.914750         0.761654        -0.142547
 H        -0.537952         1.717288        -0.966332
 H        -0.658376         1.905291         0.811552
 H         0.405208        -2.805556         1.033532
 H        -0.669361        -3.381578        -0.255197
 H         0.646249        -2.402623        -0.668169
