19
Iteration:  4654charge 0 multiplicity 1
 C        -2.942305        -1.595425         1.412025
 C        -1.692207        -0.613946         1.181790
 C        -1.906138         0.347603        -0.015203
 C        -0.702187         1.281193         0.035893
 C         0.247451         0.045090         0.000268
 O         1.496121        -0.054376        -0.019517
 C        -0.698023        -1.166868         0.190057
 C        -0.211812        -2.604597         0.200882
 O        -1.641197        -0.759121        -0.907448
 H        -3.604059        -2.079769         0.600332
 H        -2.498072        -2.569047         1.895127
 H        -3.639219        -1.154555         2.209450
 H        -1.319806        -0.044564         2.103141
 H        -2.877354         0.785402        -0.366333
 H        -0.734464         1.980203        -0.763629
 H        -0.661715         1.582848         1.051100
 H         0.342178        -2.699815         1.128770
 H        -1.094197        -3.301668         0.153429
 H         0.503972        -2.836041        -0.530420
