19
Iteration:  3106charge 0 multiplicity 1
 C        -2.900228        -1.508675         1.664414
 C        -1.794177        -0.532413         1.107160
 C        -2.024370         0.305574        -0.128751
 C        -0.700841         1.166340        -0.072906
 C         0.282734        -0.010426         0.083863
 O         1.458582        -0.032677         0.169610
 C        -0.690999        -1.169328         0.129026
 C        -0.102308        -2.600531         0.031419
 O        -1.643114        -0.822100        -0.974706
 H        -3.334786        -2.206495         0.938867
 H        -2.578784        -1.972765         2.584569
 H        -3.633641        -0.766835         2.004519
 H        -1.255962        -0.037649         1.917616
 H        -3.106831         0.723232        -0.203004
 H        -0.482685         2.071564        -0.753198
 H        -0.630553         1.822861         0.969183
 H         0.491257        -2.739739         0.889923
 H        -0.795966        -3.388314         0.194478
 H         0.669036        -2.681105        -0.714673
