19
Iteration:  1448charge 0 multiplicity 1
 C        -2.776481        -1.544840         1.576844
 C        -1.710295        -0.617662         1.184051
 C        -2.010475         0.381323         0.040745
 C        -0.783923         1.208217        -0.052727
 C         0.289109         0.022425         0.063402
 O         1.463436        -0.013862         0.056113
 C        -0.712658        -1.142564         0.177629
 C        -0.251073        -2.577505         0.055221
 O        -1.605943        -0.845732        -0.976164
 H        -2.180985        -2.297076         2.076753
 H        -3.588496        -1.162778         2.167680
 H        -3.186475        -2.018261         0.702383
 H        -1.267651        -0.074830         2.047099
 H        -3.104380         0.763914         0.026700
 H        -0.602300         1.668121        -0.959797
 H        -0.597033         1.997917         0.650801
 H         0.118763        -2.917634         1.022762
 H        -1.138123        -3.177355        -0.135801
 H         0.525815        -2.820389        -0.697504
