19
Iteration:  4183charge 0 multiplicity 1
 C        -2.883183        -1.558143         1.641141
 C        -1.760004        -0.545487         1.200568
 C        -1.905700         0.341162        -0.043612
 C        -0.679363         1.202528        -0.143270
 C         0.227963        -0.034567        -0.004179
 O         1.464666        -0.043194         0.214088
 C        -0.794416        -1.224732         0.139834
 C        -0.110775        -2.545907        -0.039292
 O        -1.669702        -0.749021        -0.905966
 H        -3.603897        -1.954444         0.808663
 H        -2.408086        -2.509873         2.104841
 H        -3.610988        -1.155554         2.433419
 H        -1.305411        -0.135692         2.220672
 H        -2.843426         0.889101        -0.313808
 H        -0.583691         1.794002        -1.088842
 H        -0.525782         1.840193         0.824007
 H         0.851946        -2.515676         0.523736
 H        -0.745757        -3.355803         0.362926
 H         0.147171        -2.877619        -1.093381
