19
Iteration:   412charge 0 multiplicity 1
 C        -2.827242        -1.540558         1.578227
 C        -1.685235        -0.571102         1.179335
 C        -2.004546         0.274661        -0.057365
 C        -0.782207         1.210861        -0.254636
 C         0.313926         0.030611         0.031530
 O         1.504652         0.108279         0.307344
 C        -0.651702        -1.145157         0.158648
 C        -0.237522        -2.571229        -0.005022
 O        -1.686179        -0.944170        -0.861298
 H        -2.601624        -2.018947         2.541967
 H        -3.809899        -1.087567         1.810547
 H        -3.075261        -2.374264         0.929543
 H        -1.219238        -0.001112         2.008419
 H        -2.976706         0.780098        -0.168584
 H        -0.638092         1.658316        -1.197271
 H        -0.553055         1.992927         0.477582
 H         0.426281        -3.010752         0.732406
 H        -1.158188        -3.224988        -0.107568
 H         0.235899        -2.636133        -0.998552
