19
Iteration:   715
 C        -2.932772        -1.638546         1.465034
 C        -1.718694        -0.578613         1.222109
 C        -2.007765         0.357997         0.073317
 C        -0.687512         1.127400        -0.273570
 C         0.308521         0.071786         0.061579
 O         1.523923         0.112714         0.218109
 C        -0.753858        -1.234831         0.190113
 C        -0.109100        -2.659690         0.084945
 O        -1.694496        -0.739589        -0.904588
 H        -2.558873        -2.564407         1.999057
 H        -3.572641        -1.097212         2.207184
 H        -3.445941        -1.978540         0.541917
 H        -1.452564        -0.013323         2.157306
 H        -3.032834         0.901936         0.045821
 H        -0.703129         1.072739        -1.282074
 H        -0.451883         2.169159         0.115512
 H         0.911525        -2.577256         0.452177
 H        -0.733439        -3.419356         0.582614
 H        -0.186389        -2.843273        -0.984936
