19
Iteration:  3231charge 0 multiplicity 1
 C        -2.972720        -1.623391         1.585302
 C        -1.771005        -0.622265         1.146305
 C        -2.009536         0.350586        -0.052055
 C        -0.726496         1.193387        -0.006441
 C         0.276756        -0.056016         0.050814
 O         1.522776        -0.015709         0.034222
 C        -0.755091        -1.145617         0.151595
 C        -0.132441        -2.561942         0.151030
 O        -1.561974        -0.718029        -0.951844
 H        -3.247345        -2.325635         0.748847
 H        -2.506004        -2.143279         2.436123
 H        -3.904436        -1.069769         1.837740
 H        -1.307549        -0.001399         1.928232
 H        -2.897036         0.780920        -0.366657
 H        -0.617834         1.882567        -0.917636
 H        -0.611004         2.011933         0.777376
 H         0.889174        -2.523200         0.520158
 H        -0.680782        -3.144944         0.862132
 H        -0.172380        -3.183862        -0.741962
