19
Iteration:  2444charge 0 multiplicity 1
 C        -2.867806        -1.698603         1.540056
 C        -1.854193        -0.543769         1.145535
 C        -1.932418         0.341062        -0.059655
 C        -0.718220         1.168635        -0.014673
 C         0.310857        -0.045588         0.044738
 O         1.476260        -0.027267        -0.009887
 C        -0.667932        -1.127941         0.238141
 C        -0.188398        -2.477080         0.193465
 O        -1.640284        -0.747108        -0.972099
 H        -3.401310        -2.094166         0.638714
 H        -2.352914        -2.602628         2.085154
 H        -3.634889        -1.193421         2.190238
 H        -1.640657        -0.132834         2.218792
 H        -2.835018         0.974621        -0.247583
 H        -0.633097         1.696430        -0.999128
 H        -0.527655         1.760250         0.880263
 H         0.590194        -2.525141         0.998180
 H        -0.942292        -3.217558         0.467864
 H         0.249270        -2.713978        -0.854037
