19
Iteration:   368
 C        -2.729011        -1.518594         1.809544
 C        -1.777664        -0.718587         1.023934
 C        -1.967928         0.312027        -0.132159
 C        -0.745654         1.245592        -0.136636
 C         0.207584         0.063550         0.042462
 O         1.363995        -0.062782         0.337999
 C        -0.769258        -1.207372         0.020725
 C        -0.069949        -2.546345         0.116135
 O        -1.650401        -0.784580        -1.105352
 H        -2.137346        -2.042580         2.592750
 H        -3.346583        -0.815728         2.429827
 H        -3.472487        -2.227001         1.396228
 H        -1.140715        -0.135278         1.771260
 H        -2.932218         0.852564        -0.369072
 H        -0.676291         2.007877        -0.919319
 H        -0.777676         2.067298         0.662163
 H         0.649966        -2.525566         0.937945
 H        -0.795412        -3.403439         0.255786
 H         0.653776        -2.829535        -0.691647
