19
Iteration:  4930
 C        -2.978823        -1.474442         1.449811
 C        -1.784407        -0.677977         1.195305
 C        -1.983527         0.359939         0.074486
 C        -0.706439         1.159531         0.013120
 C         0.248783        -0.016924         0.091116
 O         1.426100        -0.050291        -0.088110
 C        -0.705056        -1.215939         0.178080
 C        -0.086145        -2.570927         0.186931
 O        -1.553256        -0.688140        -0.958951
 H        -3.274978        -2.011394         0.563092
 H        -2.760556        -2.279139         2.229256
 H        -3.846595        -0.998970         1.940178
 H        -1.282886        -0.273623         2.105554
 H        -2.967603         0.634797        -0.304769
 H        -0.397610         1.903517        -0.753699
 H        -0.506305         1.775783         0.923859
 H         0.867903        -2.492259         0.667025
 H        -0.727407        -3.275208         0.707376
 H         0.105966        -2.965490        -0.872863
