19
Iteration:  1282charge 0 multiplicity 1
 C        -2.762870        -1.602359         1.553334
 C        -1.734825        -0.615771         1.191550
 C        -1.979575         0.417822         0.008272
 C        -0.701914         1.214430        -0.011476
 C         0.218854         0.018626         0.037784
 O         1.408802        -0.165719         0.086366
 C        -0.753126        -1.174698         0.047373
 C        -0.108831        -2.470377         0.116537
 O        -1.715698        -0.760938        -0.937057
 H        -2.141519        -2.138545         2.278920
 H        -3.638290        -1.211722         2.090847
 H        -3.111619        -2.273723         0.756607
 H        -1.363599        -0.197573         2.183441
 H        -3.020904         0.705154        -0.482408
 H        -0.389689         1.790306        -0.878148
 H        -0.645832         1.968932         0.726560
 H         0.321017        -2.524570         1.124127
 H        -0.737208        -3.350010        -0.184874
 H         0.725271        -2.436581        -0.602001
