19
Iteration:  2632
 C        -2.982511        -1.678505         1.432627
 C        -1.724071        -0.684742         1.250387
 C        -1.980968         0.455118        -0.030303
 C        -0.804837         1.281910        -0.122743
 C         0.338432        -0.002134         0.072693
 O         1.528169        -0.040178         0.041608
 C        -0.709479        -1.155282         0.206815
 C        -0.138242        -2.604279         0.197830
 O        -1.621519        -0.727871        -0.911746
 H        -3.453153        -1.960508         0.441055
 H        -2.611445        -2.520419         2.063664
 H        -3.710556        -1.084564         2.036648
 H        -1.300642        -0.198296         2.188012
 H        -2.947478         0.955975        -0.328614
 H        -0.667421         1.581687        -1.153643
 H        -0.557930         2.111360         0.600111
 H         0.802462        -2.634106         0.690772
 H        -0.695042        -3.350785         0.826010
 H        -0.113231        -2.994007        -0.804109
