19
Iteration:  4146
 C        -2.895418        -1.463483         1.559962
 C        -1.667032        -0.689403         1.232636
 C        -1.955736         0.328238        -0.008483
 C        -0.730531         1.177592        -0.104335
 C         0.248560         0.008331         0.055730
 O         1.498732        -0.097579         0.147860
 C        -0.754861        -1.185229         0.101462
 C        -0.075227        -2.508747         0.017502
 O        -1.733057        -0.773917        -0.909188
 H        -3.465329        -1.586348         0.683521
 H        -2.525916        -2.334291         2.047390
 H        -3.445396        -1.004118         2.341074
 H        -1.208076        -0.130323         2.094956
 H        -2.936497         0.708430        -0.163577
 H        -0.696655         1.778543        -1.097902
 H        -0.869774         1.954918         0.636017
 H         0.428992        -2.637059         0.982973
 H        -0.872368        -3.298561        -0.007337
 H         0.531533        -2.560737        -0.863209
