19
Iteration:   137charge 0 multiplicity 1
 C        -2.855544        -1.590820         1.500542
 C        -1.741854        -0.668137         1.258181
 C        -2.032348         0.328300         0.060752
 C        -0.716415         1.090541        -0.284421
 C         0.242198        -0.000895         0.031792
 O         1.462564         0.113185         0.200975
 C        -0.677057        -1.156581         0.181391
 C        -0.173583        -2.581625         0.096164
 O        -1.615310        -0.709239        -0.913513
 H        -2.526067        -2.334464         2.279060
 H        -3.741417        -1.137423         1.976535
 H        -3.107426        -2.153633         0.579795
 H        -1.303526        -0.150205         2.160528
 H        -3.001669         0.799771        -0.206612
 H        -0.844284         1.084746        -1.364034
 H        -0.480102         2.073098         0.307572
 H         0.429857        -2.729437         0.991448
 H        -0.896161        -3.345162        -0.044701
 H         0.598234        -2.651514        -0.680114
