19
Iteration:   239charge 0 multiplicity 1
 C        -2.887525        -1.619975         1.614516
 C        -1.958170        -0.608079         1.093060
 C        -2.069886         0.352697        -0.094870
 C        -0.763032         1.189454         0.077510
 C         0.323702         0.027537         0.126092
 O         1.533782        -0.076859        -0.083557
 C        -0.795843        -1.141845         0.244497
 C        -0.052106        -2.478178         0.204020
 O        -1.487231        -0.774051        -1.041863
 H        -2.424975        -2.088113         2.508518
 H        -3.836523        -1.165436         1.997428
 H        -3.224001        -2.458998         0.981122
 H        -1.527109        -0.021518         1.910919
 H        -3.058217         0.542285        -0.380422
 H        -0.669386         1.769460        -0.987965
 H        -0.755598         1.785770         0.969964
 H         0.619209        -2.602928         1.039552
 H        -0.558790        -3.475762         0.306193
 H         0.357566        -2.368224        -0.801806
