19
Iteration:  1094charge 0 multiplicity 1
 C        -2.877228        -1.483661         1.467561
 C        -1.794754        -0.517141         1.235143
 C        -1.955191         0.228274         0.022421
 C        -0.655901         1.144657         0.051684
 C         0.313957         0.047219         0.018841
 O         1.504684         0.182936         0.041607
 C        -0.616340        -1.222963         0.145283
 C        -0.232971        -2.702008         0.043631
 O        -1.708998        -0.862200        -0.877478
 H        -2.865437        -2.130816         2.339093
 H        -3.848915        -0.990172         1.516188
 H        -3.007250        -2.046455         0.532158
 H        -1.346851        -0.119780         2.170285
 H        -2.937186         0.840804        -0.200636
 H        -0.835181         1.701960        -0.880173
 H        -0.526248         1.763277         0.920180
 H         0.866740        -2.669620         0.302913
 H        -0.768581        -3.457915         0.593465
 H        -0.407763        -2.991617        -1.006472
