19
Iteration:  2468charge 0 multiplicity 1
 C        -2.838249        -1.683087         1.574702
 C        -1.788733        -0.615398         1.198066
 C        -1.992226         0.400282        -0.048248
 C        -0.709828         1.316856        -0.163202
 C         0.231747         0.084339         0.090388
 O         1.416251        -0.162043         0.081951
 C        -0.799000        -1.195622         0.083426
 C        -0.105584        -2.540224         0.227160
 O        -1.571305        -0.671520        -0.960477
 H        -3.667590        -1.923078         0.883206
 H        -2.125995        -2.601706         1.597268
 H        -3.251055        -1.541219         2.600828
 H        -1.425111        -0.497966         2.245675
 H        -3.093849         0.785098        -0.244017
 H        -0.368736         1.454493        -1.152440
 H        -0.503290         2.144521         0.538534
 H         0.486526        -2.542369         1.181982
 H        -0.850590        -3.435969         0.293899
 H         0.527047        -2.743245        -0.715476
