19
Iteration:  4499charge 0 multiplicity 1
 C        -2.789978        -1.499954         1.514746
 C        -1.714146        -0.572897         1.211426
 C        -1.986117         0.345480        -0.073671
 C        -0.718406         1.147230        -0.120503
 C         0.269697         0.037660         0.136768
 O         1.489751         0.052864         0.207891
 C        -0.692268        -1.196283         0.145662
 C        -0.286486        -2.650342        -0.026964
 O        -1.680437        -0.821720        -0.873147
 H        -3.224933        -1.858612         0.518596
 H        -2.398813        -2.458334         2.002830
 H        -3.621312        -0.963472         2.126156
 H        -1.171694        -0.146031         2.062839
 H        -2.985211         0.712804        -0.220201
 H        -0.387661         1.840400        -0.869014
 H        -0.562620         1.829767         0.604363
 H         0.753164        -2.856651         0.332788
 H        -0.828544        -3.362785         0.529350
 H        -0.282390        -2.803712        -1.160271
