19
Iteration:  2382
 C        -3.104219        -1.531657         1.540868
 C        -1.787505        -0.723635         1.259403
 C        -1.968058         0.355524         0.081050
 C        -0.767181         1.143665        -0.064101
 C         0.312191         0.009960         0.076224
 O         1.566226         0.115526        -0.075945
 C        -0.636984        -1.245467         0.183812
 C        -0.135644        -2.564070         0.056706
 O        -1.547357        -0.765507        -0.881230
 H        -3.159253        -2.452516         1.041834
 H        -3.460463        -1.631622         2.551111
 H        -3.886226        -0.957539         1.086368
 H        -1.328528        -0.219986         2.064118
 H        -3.090450         0.605355        -0.094406
 H        -0.688332         1.494980        -1.050248
 H        -0.319877         1.986916         0.550466
 H         0.564474        -2.598677         0.893031
 H        -0.896278        -3.345277         0.333012
 H         0.250697        -2.850310        -0.943015
