19
Iteration:  2866
 C        -2.864425        -1.610941         1.509153
 C        -1.840712        -0.569249         1.178069
 C        -1.946712         0.379109        -0.047637
 C        -0.731036         1.206446        -0.075163
 C         0.292661        -0.016698         0.098067
 O         1.499350        -0.107291         0.089942
 C        -0.774157        -1.149787         0.180481
 C        -0.089551        -2.486600         0.137168
 O        -1.654851        -0.809765        -0.958532
 H        -3.622631        -1.727904         0.714640
 H        -2.527373        -2.605817         1.877425
 H        -3.479000        -1.153540         2.362036
 H        -1.545736         0.036907         2.077795
 H        -2.958713         0.855091        -0.297126
 H        -0.335698         1.666445        -1.028061
 H        -0.564558         1.934565         0.644322
 H         0.740031        -2.362913         0.866946
 H        -0.719187        -3.288585         0.571893
 H         0.176057        -2.753229        -0.930782
