19
Iteration:   590
 C        -2.835758        -1.520495         1.504608
 C        -1.706859        -0.593642         1.129283
 C        -1.964904         0.340095        -0.057377
 C        -0.733206         1.266543        -0.107881
 C         0.281656         0.013182         0.035572
 O         1.487887         0.098323         0.122386
 C        -0.704664        -1.203787         0.148119
 C        -0.128500        -2.688200         0.131800
 O        -1.752864        -0.870970        -0.865756
 H        -2.549328        -1.738547         2.569180
 H        -3.864686        -1.091377         1.468544
 H        -2.944205        -2.447087         0.871405
 H        -1.378418        -0.131772         2.094383
 H        -2.944559         0.616900        -0.158921
 H        -0.545557         1.906563        -1.043217
 H        -0.656195         1.781440         0.745551
 H        -0.013709        -2.964699         1.208630
 H        -0.972953        -3.254176        -0.172926
 H         0.843746        -2.717109        -0.375477
