19
Iteration:   275charge 0 multiplicity 1
 C        -2.895159        -1.566515         1.360994
 C        -1.666827        -0.665705         1.196740
 C        -2.011092         0.317550         0.044341
 C        -0.739759         1.208610        -0.138309
 C         0.290288         0.086107         0.034258
 O         1.505195         0.138131         0.084255
 C        -0.682737        -1.212074         0.177526
 C        -0.114753        -2.674016         0.240257
 O        -1.731362        -0.819129        -0.868511
 H        -2.843462        -2.171261         2.252342
 H        -3.737326        -0.885466         1.475075
 H        -3.052896        -2.144234         0.473735
 H        -1.327469        -0.332403         2.144063
 H        -3.042032         0.802490         0.030884
 H        -0.615291         1.735225        -1.126701
 H        -0.702201         2.045674         0.502719
 H         0.761364        -2.838826         0.895889
 H        -0.999796        -3.306639         0.388487
 H         0.248501        -2.972366        -0.749488
