19
Iteration:  2429
 C        -2.923794        -1.542864         1.448746
 C        -1.817395        -0.613563         1.213610
 C        -2.061491         0.310696        -0.006101
 C        -0.677177         1.182671         0.036650
 C         0.340376         0.059770         0.035435
 O         1.535092         0.037719        -0.047683
 C        -0.688623        -1.141001         0.140921
 C        -0.183218        -2.600672         0.169053
 O        -1.609838        -0.840737        -0.874408
 H        -3.135374        -2.254436         0.636860
 H        -2.540979        -2.130080         2.253956
 H        -3.864930        -1.118182         1.808878
 H        -1.410589        -0.001531         2.018034
 H        -2.987299         0.690366        -0.338106
 H        -0.527421         1.910438        -0.822318
 H        -0.691676         1.765757         0.976638
 H         0.616267        -2.781896         0.885629
 H        -0.992526        -3.290767         0.405344
 H         0.099735        -2.840048        -0.809822
