19
Iteration:  4581
 C        -2.849652        -1.517913         1.560262
 C        -1.740233        -0.534715         1.230072
 C        -1.956420         0.288610        -0.063343
 C        -0.737588         1.237259        -0.121822
 C         0.280364        -0.026967         0.068597
 O         1.522106        -0.088585         0.178420
 C        -0.687414        -1.177152         0.171820
 C        -0.183989        -2.530264        -0.039965
 O        -1.695019        -0.808088        -0.873344
 H        -3.282097        -1.961415         0.680421
 H        -2.639712        -2.288779         2.321497
 H        -3.690110        -1.014128         2.014015
 H        -1.471498        -0.019173         2.149920
 H        -2.981253         0.747917        -0.230648
 H        -0.578764         1.720600        -1.138688
 H        -0.852889         1.820019         0.880736
 H         0.304446        -2.872521         0.871442
 H        -0.961002        -3.219528        -0.597375
 H         0.651082        -2.475587        -0.769329
