19
Iteration:  2610charge 0 multiplicity 1
 C        -2.803540        -1.639346         1.458391
 C        -1.772371        -0.578929         1.150865
 C        -1.992328         0.301763        -0.005402
 C        -0.680493         1.250223        -0.045153
 C         0.231575        -0.025117         0.034803
 O         1.429517        -0.147634         0.112669
 C        -0.748412        -1.116930         0.138324
 C        -0.115309        -2.421481         0.187262
 O        -1.677884        -0.748462        -0.967262
 H        -2.833167        -2.266160         0.525134
 H        -2.335862        -2.116317         2.348114
 H        -3.799415        -1.164281         1.607348
 H        -1.405280        -0.087436         2.106507
 H        -3.048439         0.714954        -0.016154
 H        -0.410682         1.695522        -0.957130
 H        -0.302845         1.783508         0.873123
 H         0.698352        -2.461456         0.844021
 H        -0.783290        -3.115182         0.783453
 H        -0.012594        -2.928178        -0.750027
