19
Iteration:  1814
 C        -2.894825        -1.603876         1.631030
 C        -1.758992        -0.577353         1.180886
 C        -1.977020         0.301145         0.059178
 C        -0.738849         1.231075        -0.044821
 C         0.227507         0.005323        -0.015384
 O         1.469144        -0.175815         0.032628
 C        -0.749264        -1.183553         0.138589
 C        -0.039552        -2.432535         0.125358
 O        -1.667176        -0.714536        -1.052526
 H        -2.509651        -2.488641         2.254760
 H        -3.493163        -1.019335         2.389845
 H        -3.668981        -1.839277         0.839412
 H        -1.209617        -0.332929         2.098583
 H        -2.993856         0.657196         0.095774
 H        -0.713961         1.884809        -0.992126
 H        -0.488214         1.838951         0.803858
 H         0.756642        -2.361022         0.950103
 H        -0.692879        -3.305145         0.506980
 H         0.578650        -2.713837        -0.814758
