19
Iteration:  1750
 C        -2.882587        -1.590542         1.615388
 C        -1.655379        -0.566628         1.260972
 C        -2.019852         0.322543        -0.043437
 C        -0.766728         1.212644        -0.156620
 C         0.336102         0.067275         0.024510
 O         1.512805         0.120308         0.112138
 C        -0.571403        -1.156046         0.156304
 C        -0.311515        -2.727388        -0.076380
 O        -1.623862        -0.821633        -0.781839
 H        -2.704862        -1.944462         2.652130
 H        -3.750952        -0.903583         1.563805
 H        -3.062408        -2.476011         0.953012
 H        -1.115699        -0.072047         2.172672
 H        -2.971167         0.665456        -0.232927
 H        -0.841686         1.610585        -1.169860
 H        -0.754472         1.950884         0.610700
 H        -0.419643        -3.214900         0.923225
 H        -1.307303        -3.010462        -0.524163
 H         0.401982        -3.159725        -0.870449
