19
Iteration:  4436charge 0 multiplicity 1
 C        -2.929453        -1.478153         1.523277
 C        -1.783492        -0.656881         1.172321
 C        -1.934351         0.348653         0.077653
 C        -0.714993         1.196252        -0.042942
 C         0.275713         0.046142         0.061756
 O         1.442265        -0.094685         0.067745
 C        -0.717965        -1.208065         0.096004
 C        -0.049940        -2.579957         0.111350
 O        -1.688934        -0.728175        -0.961776
 H        -3.405345        -1.860447         0.616465
 H        -2.557473        -2.335528         2.052445
 H        -3.689618        -1.036880         2.124893
 H        -1.369559        -0.340871         2.098510
 H        -2.862250         0.875345        -0.098131
 H        -0.641841         1.590774        -1.038397
 H        -0.537956         1.875401         0.865497
 H         0.750459        -2.421485         0.874412
 H        -0.720901        -3.397169         0.355724
 H         0.459732        -2.838925        -0.818237
