19
Iteration:  1511
 C        -2.876423        -1.449868         1.530948
 C        -1.646481        -0.617174         1.222336
 C        -2.016076         0.258696         0.014024
 C        -0.773426         1.177855        -0.052761
 C         0.274561         0.005048         0.018959
 O         1.527358         0.101909         0.035442
 C        -0.660266        -1.249247         0.169452
 C        -0.188584        -2.647350         0.051599
 O        -1.703148        -0.769090        -0.885773
 H        -2.544975        -2.441347         1.915467
 H        -3.539261        -1.123813         2.332116
 H        -3.426196        -1.629698         0.611264
 H        -1.189255        -0.193525         2.094369
 H        -2.991169         0.701899        -0.140391
 H        -0.512561         1.742359        -1.020033
 H        -0.828818         1.844602         0.847128
 H         0.104222        -2.810567         1.049691
 H        -0.996935        -3.348399        -0.155682
 H         0.608980        -2.838016        -0.659830
