19
Iteration:  1054
 C        -2.957939        -1.555896         1.695997
 C        -1.788825        -0.782616         1.163707
 C        -1.936969         0.242278         0.005490
 C        -0.726036         1.205479        -0.053402
 C         0.279274         0.127551         0.090862
 O         1.470494         0.029206         0.088760
 C        -0.721861        -1.162597         0.142173
 C        -0.210646        -2.562790         0.048574
 O        -1.493900        -0.738955        -1.031215
 H        -2.502685        -2.242711         2.390280
 H        -3.512234        -0.764605         2.244509
 H        -3.638300        -2.047435         0.975242
 H        -1.427645        -0.169467         1.980420
 H        -2.897444         0.673660        -0.341450
 H        -0.611443         1.407631        -1.082917
 H        -0.681452         2.219788         0.582375
 H         0.898473        -2.777616         0.037196
 H        -0.706328        -3.149711         0.825510
 H        -0.554867        -2.968938        -0.929226
