19
Iteration:  1970charge 0 multiplicity 1
 C        -2.794124        -1.568776         1.655056
 C        -1.703166        -0.636102         1.211861
 C        -2.046173         0.401725         0.038589
 C        -0.719142         1.139359        -0.206415
 C         0.224359        -0.011231         0.002202
 O         1.442155        -0.064443         0.164837
 C        -0.693920        -1.214786         0.184441
 C        -0.146545        -2.555492        -0.044057
 O        -1.676718        -0.666433        -0.910860
 H        -2.853892        -1.506494         2.758709
 H        -3.818242        -1.206256         1.307452
 H        -2.535635        -2.580633         1.327255
 H        -1.139053        -0.357356         2.095999
 H        -2.930766         0.890366        -0.031244
 H        -0.690037         1.544624        -1.153244
 H        -0.754977         1.945588         0.561839
 H         0.419107        -2.903169         0.876427
 H        -0.895302        -3.336372        -0.328264
 H         0.720612        -2.490156        -0.851496
