19
Iteration:  4630charge 0 multiplicity 1
 C        -2.980416        -1.505189         1.472680
 C        -1.685455        -0.741633         1.177805
 C        -2.014864         0.377313         0.097366
 C        -0.669706         1.118961        -0.032139
 C         0.331075         0.018832         0.036101
 O         1.544602         0.090456         0.016666
 C        -0.748213        -1.212171         0.113653
 C        -0.177786        -2.619658         0.205365
 O        -1.676998        -0.714481        -0.934770
 H        -3.532213        -1.607517         0.488927
 H        -2.794679        -2.574387         1.692039
 H        -3.681245        -1.129544         2.251080
 H        -1.183471        -0.242583         2.066075
 H        -2.904797         0.861287        -0.184038
 H        -0.552829         1.409360        -1.126846
 H        -0.592610         1.901282         0.732420
 H         0.154454        -2.836718         1.249792
 H        -0.908184        -3.255984        -0.147462
 H         0.689927        -2.812163        -0.457668
