19
Iteration:  1482
 C        -2.999912        -1.549037         1.632513
 C        -1.714460        -0.766237         1.196689
 C        -1.944584         0.347660         0.108942
 C        -0.652192         1.211087        -0.180410
 C         0.371869         0.068060        -0.001585
 O         1.530564         0.275273         0.031658
 C        -0.670802        -1.250806         0.201623
 C        -0.319564        -2.678624         0.046735
 O        -1.639435        -0.829213        -0.945166
 H        -2.574761        -2.496472         1.923809
 H        -3.489718        -1.176738         2.519807
 H        -3.650272        -1.790137         0.796834
 H        -1.199184        -0.494980         2.180101
 H        -2.988634         0.909452        -0.041005
 H        -0.502277         1.545482        -1.129991
 H        -0.601342         1.824240         0.691634
 H        -0.136183        -2.954118         1.128754
 H        -1.272358        -3.105259        -0.225652
 H         0.548332        -3.013258        -0.562596
