19
Iteration:  4832
 C        -2.772961        -1.498131         1.613124
 C        -1.683989        -0.612292         1.158227
 C        -1.948162         0.281053        -0.059593
 C        -0.696912         1.143636        -0.141072
 C         0.298488         0.003182        -0.008267
 O         1.444219         0.004411         0.341274
 C        -0.721794        -1.161451         0.036789
 C        -0.264564        -2.594762         0.088701
 O        -1.734140        -0.733141        -1.042661
 H        -3.431450        -1.952707         0.822495
 H        -2.167381        -2.386048         2.117747
 H        -3.396411        -1.273081         2.548942
 H        -1.064140        -0.059471         2.004770
 H        -2.875683         0.883332        -0.115161
 H        -0.820933         1.904589        -0.860219
 H        -0.442895         1.682962         0.774998
 H         0.045622        -2.777150         1.096472
 H        -1.009587        -3.344304        -0.012173
 H         0.505040        -2.789968        -0.690593
