19
Iteration:  3372charge 0 multiplicity 1
 C        -2.810930        -1.587176         1.695935
 C        -1.728630        -0.568679         1.166580
 C        -2.043174         0.336035        -0.083630
 C        -0.695422         1.213011        -0.062928
 C         0.263844        -0.026827         0.088840
 O         1.477249        -0.012469         0.186235
 C        -0.708615        -1.227075         0.076142
 C        -0.227393        -2.586049         0.124405
 O        -1.639469        -0.730405        -1.096393
 H        -3.309852        -2.318007         1.009874
 H        -2.174093        -2.156623         2.369835
 H        -3.551913        -1.180723         2.374365
 H        -1.442950        -0.037535         2.085316
 H        -2.919733         0.810783        -0.415752
 H        -0.572554         1.688173        -1.136113
 H        -0.574978         2.208118         0.548571
 H         0.057992        -2.872239         1.105669
 H        -0.930166        -3.291414        -0.232298
 H         0.645041        -2.642587        -0.490911
