19
Iteration:  4475charge 0 multiplicity 1
 C        -2.984257        -1.532179         1.481456
 C        -1.780877        -0.586268         1.251771
 C        -1.919095         0.334629         0.035704
 C        -0.689224         1.156949        -0.141032
 C         0.327492         0.024434         0.014154
 O         1.493367         0.038862         0.177221
 C        -0.704386        -1.202249         0.209560
 C        -0.160242        -2.598962        -0.053151
 O        -1.648793        -0.817116        -0.859480
 H        -3.643526        -1.824955         0.634565
 H        -2.556464        -2.500547         1.866769
 H        -3.589251        -1.034239         2.312086
 H        -1.277912        -0.142460         2.177601
 H        -2.880095         0.859590        -0.138726
 H        -0.840418         1.840931        -1.044083
 H        -0.430660         1.996579         0.399870
 H         0.791152        -2.862850         0.399452
 H        -0.748663        -3.214345         0.609009
 H        -0.178642        -2.861906        -1.150276
