19
Iteration:  1155
 C        -2.822554        -1.627633         1.536731
 C        -1.804915        -0.652689         1.195808
 C        -2.050498         0.408992        -0.015720
 C        -0.713789         1.207299        -0.038077
 C         0.206777         0.012130         0.066726
 O         1.449285        -0.147349        -0.015988
 C        -0.751178        -1.174203         0.154105
 C        -0.084798        -2.513566         0.183224
 O        -1.601876        -0.684873        -0.957322
 H        -2.410702        -2.565962         2.009227
 H        -3.397532        -1.123117         2.353192
 H        -3.383345        -1.945980         0.649583
 H        -1.269842        -0.322855         2.102410
 H        -2.918864         0.928697        -0.216280
 H        -0.659998         1.804728        -1.036850
 H        -0.513870         2.081654         0.812420
 H         0.411984        -2.673196         1.126551
 H        -0.719794        -3.436663         0.021704
 H         0.777605        -2.397207        -0.523897
