19
Iteration:  3469charge 0 multiplicity 1
 C        -3.011373        -1.614433         1.410161
 C        -1.713964        -0.675576         1.238133
 C        -1.998622         0.389695         0.017312
 C        -0.697137         1.224391        -0.135076
 C         0.304067         0.041055         0.105791
 O         1.567396         0.011386        -0.033625
 C        -0.705764        -1.160778         0.207493
 C        -0.190226        -2.580866         0.186507
 O        -1.648067        -0.752923        -0.855589
 H        -3.525957        -1.861252         0.461893
 H        -2.840779        -2.585882         1.898101
 H        -3.726754        -1.191602         2.100663
 H        -1.324174        -0.320732         2.275417
 H        -3.019017         0.679027        -0.127582
 H        -0.422371         1.734605        -1.084471
 H        -0.373592         2.010951         0.503235
 H         0.876222        -2.660966         0.469147
 H        -0.705978        -3.321157         0.865463
 H        -0.258161        -3.133315        -0.773385
