19
Iteration:  2157charge 0 multiplicity 1
 C        -2.862960        -1.588446         1.485806
 C        -1.768547        -0.601708         1.257582
 C        -1.915195         0.401846         0.080876
 C        -0.668393         1.205370         0.019920
 C         0.270777         0.047005         0.072986
 O         1.521672         0.110485        -0.106654
 C        -0.673123        -1.226113         0.252524
 C        -0.271737        -2.643461         0.028856
 O        -1.668379        -0.818151        -0.896875
 H        -3.594958        -1.474342         2.403704
 H        -3.669490        -1.577780         0.698472
 H        -2.568187        -2.699386         1.416603
 H        -1.338422        -0.216573         2.168910
 H        -2.803083         0.893263        -0.051419
 H        -0.554740         1.414435        -1.041905
 H        -0.644835         1.963960         0.807108
 H         0.862666        -2.813646         0.230596
 H        -0.940755        -3.304187         0.757071
 H        -0.496205        -3.028243        -0.990717
