19
Iteration:  4686charge 0 multiplicity 1
 C        -2.925672        -1.657168         1.477980
 C        -1.822162        -0.568847         1.167797
 C        -1.954970         0.357224        -0.000797
 C        -0.669718         1.174722         0.007168
 C         0.308987        -0.008851         0.186852
 O         1.466956        -0.081165        -0.095051
 C        -0.749820        -1.181201         0.260003
 C        -0.194989        -2.529843         0.120363
 O        -1.546048        -0.673221        -0.954454
 H        -3.098195        -2.487442         0.669152
 H        -2.433782        -2.182470         2.392255
 H        -3.934067        -1.326038         1.902276
 H        -1.693518         0.100557         2.115849
 H        -2.903022         0.863801        -0.323802
 H        -0.531623         1.602688        -1.040137
 H        -0.637565         2.065500         0.728980
 H         0.568767        -2.675867         0.880786
 H        -0.881108        -3.373931         0.425406
 H         0.142802        -2.586931        -0.870619
