19
Iteration:  2558charge 0 multiplicity 1
 C        -2.922360        -1.536873         1.691098
 C        -1.739937        -0.682169         1.204706
 C        -1.998077         0.302434         0.037453
 C        -0.750213         1.142356        -0.128176
 C         0.318868         0.015638         0.072759
 O         1.474739         0.065535         0.191424
 C        -0.688036        -1.125277         0.088487
 C        -0.247128        -2.574846        -0.021900
 O        -1.527956        -0.797889        -0.992554
 H        -3.241789        -2.202066         0.867325
 H        -2.879318        -2.009339         2.649738
 H        -3.724589        -0.783595         1.731855
 H        -1.153412        -0.210604         2.003859
 H        -2.972803         0.794116        -0.163280
 H        -0.680664         1.449000        -1.155410
 H        -0.569798         1.990352         0.499919
 H         0.336433        -2.973119         0.876196
 H        -1.147154        -3.216292        -0.238190
 H         0.441971        -2.654776        -0.858190
