19
Iteration:  2336charge 0 multiplicity 1
 C        -2.716471        -1.595508         1.542130
 C        -1.739693        -0.475847         1.242601
 C        -2.016327         0.359597        -0.051203
 C        -0.737008         1.146302        -0.008931
 C         0.260125        -0.016172         0.062849
 O         1.415129        -0.155434         0.098626
 C        -0.779014        -1.175313         0.049343
 C        -0.141655        -2.462213         0.136873
 O        -1.648027        -0.770139        -0.966022
 H        -2.424296        -2.568732         1.150541
 H        -3.011462        -1.683936         2.637392
 H        -3.723202        -1.413243         1.149863
 H        -1.257047        -0.129628         2.149919
 H        -2.986487         0.916010        -0.329937
 H        -0.584887         1.816386        -0.871956
 H        -0.858719         1.939013         0.754946
 H         0.432423        -2.555820         1.096610
 H        -0.750890        -3.351312        -0.005818
 H         0.556666        -2.572914        -0.814249
