19
Iteration:  2899
 C        -2.880846        -1.676309         1.411805
 C        -1.789907        -0.616329         1.215215
 C        -1.935767         0.389736         0.104386
 C        -0.717316         1.267527        -0.182752
 C         0.336589         0.007564         0.013239
 O         1.504591         0.010108         0.073533
 C        -0.743973        -1.188744         0.223400
 C        -0.185557        -2.619612         0.262660
 O        -1.648052        -0.711352        -0.975248
 H        -3.257143        -2.043652         0.434148
 H        -2.800287        -2.554941         2.084403
 H        -3.726929        -1.008590         1.834624
 H        -1.511998        -0.212592         2.221948
 H        -2.997313         0.845163         0.018135
 H        -0.579909         1.503154        -1.294969
 H        -0.461748         1.971964         0.545476
 H         0.866759        -2.730454         0.566851
 H        -0.884000        -3.207818         0.905681
 H        -0.118114        -3.141322        -0.739491
