19
Iteration:  4201
 C        -2.882385        -1.585347         1.665862
 C        -1.715864        -0.709210         1.178448
 C        -2.040913         0.401409         0.046865
 C        -0.623131         1.180159        -0.160365
 C         0.244255         0.007596         0.054106
 O         1.490092         0.029478         0.207259
 C        -0.703827        -1.190613         0.120535
 C        -0.239485        -2.598565         0.038941
 O        -1.622116        -0.699552        -1.014141
 H        -3.291685        -2.085059         0.853050
 H        -2.561896        -2.393063         2.245850
 H        -3.544546        -0.940352         2.162603
 H        -1.325933        -0.243703         2.062954
 H        -3.012153         0.828677        -0.160473
 H        -0.646536         1.375654        -1.256097
 H        -0.404451         1.967788         0.518898
 H         0.801733        -2.765201         0.313466
 H        -0.861274        -3.337391         0.591877
 H        -0.274338        -2.785269        -1.026612
