19
Iteration:  4070charge 0 multiplicity 1
 C        -2.815555        -1.606002         1.486929
 C        -1.742730        -0.571841         1.199046
 C        -1.958836         0.385952        -0.018895
 C        -0.744098         1.155142        -0.012132
 C         0.214293         0.075298         0.019599
 O         1.486757        -0.023220        -0.004040
 C        -0.660667        -1.192872         0.200616
 C        -0.279498        -2.637509         0.123685
 O        -1.612158        -0.740234        -0.891778
 H        -3.010829        -2.151333         0.546176
 H        -2.336520        -2.149175         2.377181
 H        -3.758673        -1.135285         1.848723
 H        -1.192899        -0.122844         2.153847
 H        -2.926876         0.651115        -0.361926
 H        -0.601366         2.051428        -0.778222
 H        -0.498580         1.692307         0.942316
 H         0.162941        -2.946802         1.124629
 H        -1.231322        -3.178088        -0.129896
 H         0.474639        -2.831217        -0.654486
