19
Iteration:  2105
 C        -2.924499        -1.541040         1.471443
 C        -1.666227        -0.657807         1.214395
 C        -1.944007         0.336506         0.102929
 C        -0.698335         1.233179         0.053766
 C         0.276703         0.029542         0.091998
 O         1.442597        -0.047093        -0.108389
 C        -0.678601        -1.199433         0.179008
 C        -0.108357        -2.580094         0.057260
 O        -1.745231        -0.742580        -0.916556
 H        -3.873758        -0.979102         1.539157
 H        -3.106102        -2.401113         0.870870
 H        -2.927680        -1.889897         2.521616
 H        -1.119739        -0.346629         2.158790
 H        -3.046589         0.761809         0.046355
 H        -0.662781         1.883578        -0.887778
 H        -0.507510         1.733143         0.992364
 H         0.892200        -2.503348         0.583121
 H        -0.751710        -3.481505         0.244315
 H         0.092713        -2.631809        -0.999769
