19
Iteration:  1160
 C        -2.840308        -1.623852         1.556725
 C        -1.767522        -0.675797         1.153094
 C        -1.998454         0.369191        -0.045950
 C        -0.724419         1.256651        -0.001220
 C         0.242551         0.002688         0.062307
 O         1.452181        -0.117751        -0.016633
 C        -0.757155        -1.149030         0.172690
 C        -0.115351        -2.527137         0.170959
 O        -1.643514        -0.721379        -0.942966
 H        -2.412607        -2.528917         1.975663
 H        -3.400132        -1.208286         2.387484
 H        -3.442773        -1.906407         0.679749
 H        -1.375321        -0.178220         2.084029
 H        -2.957297         0.954352        -0.344221
 H        -0.611681         1.886345        -0.884161
 H        -0.379444         1.893242         0.712507
 H         0.296747        -2.603193         1.214855
 H        -0.624346        -3.425657        -0.090524
 H         0.718953        -2.332751        -0.485851
