19
Iteration:  2954
 C        -3.031927        -1.490759         1.614472
 C        -1.863963        -0.593406         1.155788
 C        -1.998299         0.310214        -0.079807
 C        -0.727356         1.175499        -0.036260
 C         0.344657         0.059065         0.089055
 O         1.530057         0.035631         0.027784
 C        -0.725677        -1.266362         0.184250
 C        -0.113251        -2.611021         0.072861
 O        -1.548994        -0.772274        -0.905344
 H        -3.131754        -2.270372         0.829803
 H        -2.620265        -1.893670         2.566067
 H        -4.030145        -0.976502         1.719108
 H        -1.349511        -0.231116         2.077659
 H        -3.035859         0.692484        -0.423988
 H        -0.406427         1.744653        -0.980448
 H        -0.515133         1.814447         0.807303
 H         0.789880        -2.675737         0.655992
 H        -0.736315        -3.432700         0.459761
 H        -0.039979        -3.019832        -0.950743
