19
Iteration:  1635
 C        -2.975322        -1.578538         1.613033
 C        -1.748274        -0.641860         1.263170
 C        -1.945377         0.366656         0.002342
 C        -0.682553         1.182506        -0.132131
 C         0.369839        -0.011695         0.031472
 O         1.510539         0.192879         0.024455
 C        -0.726502        -1.202896         0.187239
 C        -0.263539        -2.674975         0.020705
 O        -1.604133        -0.811257        -0.896398
 H        -2.792555        -2.616360         1.891077
 H        -3.672053        -1.111609         2.308404
 H        -3.667928        -1.783566         0.797784
 H        -1.238159        -0.409920         2.161559
 H        -3.008661         0.847096        -0.123791
 H        -0.460290         1.722955        -1.032305
 H        -0.628595         1.992020         0.702080
 H         0.740878        -2.614214         0.475888
 H        -0.698353        -3.421847         0.647134
 H        -0.181705        -3.013840        -0.983346
