19
Iteration:  1124charge 0 multiplicity 1
 C        -2.877447        -1.657977         1.474501
 C        -1.782284        -0.678309         1.235810
 C        -2.013867         0.344224         0.029611
 C        -0.652057         1.264431        -0.095174
 C         0.281977         0.070812         0.018314
 O         1.489705        -0.079726         0.019053
 C        -0.729277        -1.184925         0.204231
 C        -0.141325        -2.521463         0.157383
 O        -1.669914        -0.708598        -0.892744
 H        -2.653198        -2.382101         2.302268
 H        -3.767398        -1.035843         1.705264
 H        -3.219536        -2.201978         0.581334
 H        -1.283985        -0.364250         2.186961
 H        -2.932728         0.835634        -0.138828
 H        -0.813085         1.620242        -1.178615
 H        -0.524065         2.033022         0.663623
 H         0.785163        -2.487989         0.688037
 H        -0.750811        -3.378936         0.457912
 H         0.242516        -2.704038        -0.858601
