19
Iteration:   574
 C        -2.903920        -1.545762         1.400096
 C        -1.640106        -0.604557         1.269732
 C        -1.972927         0.316618         0.086622
 C        -0.694687         1.086565        -0.135374
 C         0.272260         0.008285        -0.045252
 O         1.426437         0.210419         0.067373
 C        -0.669529        -1.174578         0.165554
 C        -0.217638        -2.647644         0.211949
 O        -1.680391        -0.857880        -0.870666
 H        -3.108471        -1.993314         2.353133
 H        -3.675168        -0.846637         1.119474
 H        -2.747678        -2.311046         0.673991
 H        -1.077225        -0.163223         2.087880
 H        -2.883854         1.040075        -0.156230
 H        -0.645110         1.544707        -1.096062
 H        -0.378413         1.925811         0.698534
 H         0.017336        -2.984066         1.228082
 H        -0.937253        -3.370064        -0.310058
 H         0.643867        -2.786655        -0.456659
