19
Iteration:  1359
 C        -2.877828        -1.449372         1.510888
 C        -1.712236        -0.639256         1.232066
 C        -1.939488         0.274066        -0.015019
 C        -0.774931         1.118562        -0.071744
 C         0.291619         0.078646         0.021779
 O         1.533968         0.152528         0.090842
 C        -0.631013        -1.244143         0.184652
 C        -0.255340        -2.655620        -0.043082
 O        -1.640526        -0.853743        -0.798238
 H        -2.645905        -2.394649         1.993639
 H        -3.618278        -0.853500         2.014583
 H        -3.424196        -1.704455         0.607757
 H        -1.455390        -0.064065         2.170729
 H        -2.950126         0.856659        -0.049239
 H        -0.832834         1.732635        -0.966181
 H        -0.749907         1.783358         0.789727
 H         0.729923        -2.815513         0.308095
 H        -1.039968        -3.271718         0.467733
 H        -0.279009        -2.883698        -1.122745
