19
Iteration:  4079
 C        -2.788523        -1.565283         1.491425
 C        -1.752503        -0.578150         1.214352
 C        -1.939397         0.281012        -0.015145
 C        -0.743024         1.274175         0.029874
 C         0.319878         0.011172        -0.002447
 O         1.475961         0.010707         0.004252
 C        -0.631373        -1.141394         0.157182
 C        -0.334775        -2.611233         0.117872
 O        -1.633425        -0.818285        -0.896315
 H        -2.961861        -2.147009         0.573298
 H        -2.493559        -2.204282         2.374552
 H        -3.747762        -1.187534         1.777383
 H        -1.392245        -0.201134         2.293080
 H        -2.832202         0.880392        -0.251382
 H        -0.670228         1.894093        -0.931850
 H        -0.772062         1.801763         1.006249
 H        -0.078680        -3.077863         1.102871
 H        -1.238914        -3.157596        -0.157767
 H         0.378343        -2.760691        -0.709333
