19
Iteration:  3858
 C        -2.925072        -1.479431         1.558042
 C        -1.657802        -0.671301         1.253764
 C        -1.958228         0.276173         0.065375
 C        -0.698909         1.128708        -0.217200
 C         0.257254         0.031824         0.088469
 O         1.491419         0.051590         0.196387
 C        -0.727694        -1.184224         0.088208
 C        -0.145259        -2.634440        -0.028287
 O        -1.697036        -0.736845        -0.898483
 H        -3.770403        -1.534082         0.906848
 H        -2.678992        -2.470144         1.855443
 H        -3.424361        -1.075429         2.404777
 H        -1.308167        -0.203101         2.118632
 H        -2.923752         0.840741        -0.082236
 H        -0.818446         1.449120        -1.249451
 H        -0.481283         2.074943         0.418588
 H         0.435566        -2.713982         0.852614
 H        -0.946305        -3.375479        -0.249315
 H         0.704428        -2.675267        -0.712830
