19
Iteration:  3075charge 0 multiplicity 1
 C        -2.813769        -1.597708         1.582456
 C        -1.687933        -0.549324         1.161439
 C        -1.996452         0.336524        -0.069280
 C        -0.724637         1.172788        -0.200578
 C         0.293220         0.006835         0.091344
 O         1.509685         0.085247         0.226109
 C        -0.709208        -1.140349         0.164895
 C        -0.304838        -2.630103         0.063462
 O        -1.659196        -0.815945        -0.921701
 H        -3.138161        -2.149538         0.667592
 H        -2.591487        -2.322366         2.420164
 H        -3.590843        -0.880950         1.902762
 H        -1.181282        -0.207981         2.070199
 H        -3.020655         0.753754        -0.149323
 H        -0.546796         1.418077        -1.337989
 H        -0.534710         2.074080         0.566896
 H        -0.025208        -3.004264         1.032701
 H        -1.016286        -3.389876        -0.328138
 H         0.590603        -2.817518        -0.510654
