19
Iteration:  1298
 C        -2.796862        -1.648612         1.632063
 C        -1.731773        -0.626656         1.161501
 C        -2.043400         0.343338         0.016369
 C        -0.763976         1.231790        -0.082996
 C         0.281729        -0.020525         0.052013
 O         1.445279        -0.130563         0.093753
 C        -0.729476        -1.138117         0.112597
 C        -0.132387        -2.502229         0.137403
 O        -1.638854        -0.677610        -1.043408
 H        -2.570245        -2.550995         2.239190
 H        -3.470393        -1.150476         2.353462
 H        -3.177395        -1.959031         0.642787
 H        -1.233800        -0.121820         1.983509
 H        -2.909741         0.891079         0.138691
 H        -0.795286         1.802173        -1.074438
 H        -0.567363         1.988894         0.746523
 H         0.408253        -2.716664         1.083777
 H        -0.900776        -3.267599         0.196619
 H         0.534012        -2.692879        -0.745891
