19
Iteration:  1091charge 0 multiplicity 1
 C        -2.864721        -1.463938         1.472067
 C        -1.796781        -0.526833         1.243269
 C        -1.968016         0.214951         0.029476
 C        -0.664904         1.134645         0.068044
 C         0.319184         0.050227         0.002652
 O         1.497554         0.191409         0.047232
 C        -0.646629        -1.212494         0.156864
 C        -0.222587        -2.738651         0.030273
 O        -1.682454        -0.844739        -0.892284
 H        -2.891086        -2.126671         2.371594
 H        -3.824359        -0.902000         1.564452
 H        -2.960751        -2.034741         0.542147
 H        -1.340006        -0.109022         2.161047
 H        -2.833430         0.722144        -0.252644
 H        -0.797937         1.745190        -0.901642
 H        -0.626913         1.839865         0.827639
 H         0.796613        -2.744111         0.265641
 H        -0.751919        -3.491048         0.649659
 H        -0.444926        -2.977026        -1.010637
