19
Iteration:  1343charge 0 multiplicity 1
 C        -2.910758        -1.496595         1.523422
 C        -1.667763        -0.593692         1.244764
 C        -2.024034         0.292534         0.009128
 C        -0.674804         1.184672        -0.057398
 C         0.299048        -0.015245         0.077201
 O         1.543964         0.257003         0.069112
 C        -0.684862        -1.199125         0.205683
 C        -0.290743        -2.687217         0.004258
 O        -1.688480        -0.888988        -0.917529
 H        -2.687609        -2.524519         1.932361
 H        -3.480426        -1.133271         2.413193
 H        -3.449852        -1.699744         0.569287
 H        -1.130376        -0.176823         2.102686
 H        -2.935930         0.528684        -0.392812
 H        -0.289710         1.671923        -1.051157
 H        -0.542450         1.746395         0.917974
 H         0.722118        -3.040334         0.376887
 H        -0.973249        -3.396196         0.436856
 H        -0.243915        -2.719165        -1.087171
