19
Iteration:   508charge 0 multiplicity 1
 C        -2.851976        -1.538098         1.485057
 C        -1.818991        -0.517706         1.113268
 C        -2.019563         0.335969        -0.126472
 C        -0.744388         1.051624         0.092434
 C         0.227375        -0.015427         0.077849
 O         1.452843        -0.052110        -0.106933
 C        -0.817825        -1.192192         0.253452
 C        -0.080725        -2.427583         0.285708
 O        -1.500908        -0.808192        -0.955920
 H        -2.458355        -2.433453         1.910838
 H        -3.524332        -1.170419         2.246901
 H        -3.478897        -1.946696         0.730051
 H        -1.413988        -0.034150         1.999497
 H        -3.046967         0.710170        -0.552475
 H        -0.617647         1.798837        -0.610333
 H        -0.683386         1.652404         1.108857
 H         0.712620        -2.304836         1.017245
 H        -0.610804        -3.407645         0.413478
 H         0.392720        -2.500414        -0.718372
