19
Iteration:  1725charge 0 multiplicity 1
 C        -2.831486        -1.576117         1.632831
 C        -1.701677        -0.642080         1.257356
 C        -1.974422         0.347327         0.060631
 C        -0.681216         1.131620        -0.151965
 C         0.310444         0.060172        -0.014564
 O         1.518332         0.123088         0.146846
 C        -0.765442        -1.207341         0.122234
 C        -0.280672        -2.629929         0.032572
 O        -1.689224        -0.767585        -0.960004
 H        -2.513468        -2.217804         2.506137
 H        -3.763224        -1.007806         1.827167
 H        -3.040925        -2.236985         0.776290
 H        -0.999618        -0.344699         2.061906
 H        -2.952511         0.870872        -0.001928
 H        -0.740832         1.374367        -1.261412
 H        -0.509101         1.992675         0.488668
 H        -0.104546        -2.921482         1.107351
 H        -0.942528        -3.437769        -0.433424
 H         0.623162        -2.595777        -0.602494
