19
Iteration:  1895charge 0 multiplicity 1
 C        -2.935457        -1.518037         1.499151
 C        -1.678467        -0.699386         1.215054
 C        -1.933629         0.311185         0.085904
 C        -0.714262         1.212868        -0.090783
 C         0.268838         0.114240         0.124423
 O         1.479920         0.147614        -0.048730
 C        -0.689036        -1.254949         0.229278
 C        -0.217590        -2.720789         0.157307
 O        -1.622327        -0.781836        -0.977628
 H        -2.663373        -2.567021         1.552743
 H        -3.376286        -1.173262         2.441924
 H        -3.645667        -1.438751         0.690342
 H        -1.217004        -0.219406         2.145871
 H        -2.884948         0.810321        -0.043981
 H        -0.788124         1.565147        -1.073778
 H        -0.511724         2.055713         0.602748
 H         0.822100        -3.009427         0.372661
 H        -0.927894        -3.338830         0.704604
 H        -0.499130        -2.912979        -0.891916
