19
Iteration:   928charge 0 multiplicity 1
 C        -2.838945        -1.475237         1.605133
 C        -1.783769        -0.576207         1.194401
 C        -2.091267         0.245399        -0.086635
 C        -0.833207         1.224475         0.003454
 C         0.319954         0.038943         0.103640
 O         1.567240         0.026008         0.120774
 C        -0.633877        -1.137020         0.152133
 C        -0.169021        -2.639275        -0.008109
 O        -1.596511        -0.857262        -0.952555
 H        -2.643691        -2.037547         2.531146
 H        -3.624755        -0.766116         1.884130
 H        -3.170705        -2.104911         0.787123
 H        -1.322862        -0.060492         2.027654
 H        -3.081880         0.638199        -0.130921
 H        -0.911669         1.934949        -0.935781
 H        -0.703065         1.723759         0.874316
 H         0.520398        -3.173585         0.599363
 H        -1.105959        -3.258148        -0.096581
 H         0.111663        -2.808590        -1.073543
