19
Iteration:  3303charge 0 multiplicity 1
 C        -2.974979        -1.537913         1.577548
 C        -1.695005        -0.690919         1.172254
 C        -1.915085         0.347964         0.016287
 C        -0.681629         1.178030        -0.234482
 C         0.254198        -0.015801         0.047927
 O         1.513368         0.101489         0.206047
 C        -0.679867        -1.212453         0.167755
 C        -0.195886        -2.570906         0.054729
 O        -1.705840        -0.783277        -0.875864
 H        -3.438680        -1.738448         0.626057
 H        -2.696107        -2.446973         2.126176
 H        -3.654333        -0.843897         2.061556
 H        -1.164548        -0.496036         2.172380
 H        -3.012373         0.738750         0.047152
 H        -0.437355         1.371072        -1.288565
 H        -0.609319         2.188919         0.185430
 H         0.437230        -2.812710         0.939182
 H        -0.932511        -3.439602        -0.206929
 H         0.475402        -2.624554        -0.836033
