19
Iteration:  3074charge 0 multiplicity 1
 C        -2.810532        -1.597861         1.578623
 C        -1.688721        -0.554678         1.163635
 C        -1.994870         0.332621        -0.063027
 C        -0.726934         1.177840        -0.220227
 C         0.296145         0.007353         0.100059
 O         1.506082         0.085859         0.225671
 C        -0.699463        -1.143458         0.166185
 C        -0.308736        -2.638037         0.066791
 O        -1.660079        -0.806272        -0.919639
 H        -3.154459        -2.146678         0.680463
 H        -2.581174        -2.309373         2.392428
 H        -3.603220        -0.895327         1.904983
 H        -1.206894        -0.209038         2.074986
 H        -3.052300         0.739931        -0.134388
 H        -0.555384         1.415133        -1.351426
 H        -0.495459         2.059479         0.586853
 H        -0.040902        -2.975212         1.031395
 H        -1.000376        -3.363288        -0.344434
 H         0.581358        -2.828143        -0.512212
