19
Iteration:  3186
 C        -2.844915        -1.570558         1.333471
 C        -1.776764        -0.627138         1.284146
 C        -2.002041         0.413546        -0.000703
 C        -0.705198         1.154396        -0.095605
 C         0.294587         0.019263         0.056858
 O         1.516805         0.088754         0.006176
 C        -0.695824        -1.147913         0.176559
 C        -0.235278        -2.619660         0.213585
 O        -1.642218        -0.868385        -0.814330
 H        -3.328046        -1.649279         0.348289
 H        -2.629588        -2.607277         1.730991
 H        -3.695165        -1.170867         1.892719
 H        -1.383139        -0.195446         2.224893
 H        -2.929869         0.803385        -0.278148
 H        -0.346456         1.700763        -1.094760
 H        -0.357085         1.955987         0.689208
 H         0.800450        -2.609456         0.378403
 H        -0.814304        -3.250249         0.888614
 H        -0.494153        -3.004735        -0.739508
