19
Iteration:  2492charge 0 multiplicity 1
 C        -2.825605        -1.578124         1.571952
 C        -1.682815        -0.634914         1.175463
 C        -2.067206         0.332863        -0.021924
 C        -0.726144         1.135436        -0.153296
 C         0.270057         0.017478        -0.010184
 O         1.526173        -0.047770         0.220607
 C        -0.725492        -1.164831         0.137181
 C        -0.125233        -2.492192         0.156637
 O        -1.719527        -0.743189        -0.985204
 H        -3.589853        -1.372268         0.816186
 H        -2.633729        -2.631133         1.557605
 H        -3.254880        -1.288156         2.523412
 H        -1.336905        -0.181784         2.071012
 H        -3.064124         0.845447        -0.150047
 H        -0.620671         1.623594        -1.082438
 H        -0.549312         1.822176         0.703131
 H         0.300017        -2.869097         1.110980
 H        -0.911839        -3.244392        -0.190642
 H         0.573416        -2.477647        -0.669543
