19
Iteration:   399charge 0 multiplicity 1
 C        -2.785948        -1.519781         1.715861
 C        -1.751966        -0.604384         1.192343
 C        -1.976319         0.245324        -0.035186
 C        -0.713523         1.055165        -0.223148
 C         0.252121         0.039055         0.039529
 O         1.434619         0.103442         0.318986
 C        -0.664942        -1.201706         0.074089
 C        -0.187487        -2.586990         0.022392
 O        -1.673863        -0.745753        -1.018654
 H        -2.439912        -1.926030         2.662144
 H        -3.663423        -0.893169         1.800786
 H        -2.939564        -2.280451         0.946276
 H        -1.376026        -0.054137         2.080043
 H        -3.036693         0.718027        -0.336729
 H        -0.772528         1.347621        -1.211464
 H        -0.712843         1.969686         0.481986
 H         0.471638        -2.718006         0.904077
 H        -1.039730        -3.316213         0.029107
 H         0.501686        -2.727579        -0.863699
