19
Iteration:  1816
 C        -2.897440        -1.598576         1.630734
 C        -1.760833        -0.572587         1.192824
 C        -1.978894         0.308915         0.069997
 C        -0.734543         1.230269        -0.038083
 C         0.213475         0.006605        -0.012198
 O         1.456416        -0.178238         0.027364
 C        -0.738360        -1.179008         0.120686
 C        -0.045802        -2.424996         0.124859
 O        -1.656362        -0.735601        -1.052093
 H        -2.465010        -2.501517         2.124214
 H        -3.498326        -1.051950         2.405038
 H        -3.631233        -1.787517         0.790340
 H        -1.206551        -0.298163         2.138776
 H        -2.929830         0.670154         0.082745
 H        -0.670428         1.769479        -0.958758
 H        -0.499579         1.837025         0.817594
 H         0.729399        -2.289535         0.934004
 H        -0.644178        -3.272541         0.540259
 H         0.546958        -2.744037        -0.831731
