19
Iteration:   536charge 0 multiplicity 1
 C        -2.994035        -1.673441         1.443767
 C        -1.797289        -0.622634         1.219489
 C        -2.001063         0.408766        -0.008406
 C        -0.713379         1.241629        -0.115012
 C         0.323761         0.155949         0.071129
 O         1.491881         0.020499        -0.095090
 C        -0.648292        -1.148265         0.291302
 C        -0.117447        -2.655008         0.232997
 O        -1.576302        -0.829180        -0.856555
 H        -2.907905        -2.459849         2.274222
 H        -3.927154        -1.119302         1.770843
 H        -3.446828        -2.242453         0.563137
 H        -1.500243        -0.188365         2.209395
 H        -2.915875         0.786260        -0.335692
 H        -0.709060         1.602117        -1.223634
 H        -0.551556         2.113616         0.453867
 H         0.434885        -3.053810         1.104659
 H        -1.050509        -3.166044         0.152444
 H         0.535426        -2.851826        -0.640314
