19
Iteration:  4483charge 0 multiplicity 1
 C        -2.926646        -1.537661         1.487362
 C        -1.705430        -0.522802         1.237744
 C        -1.959930         0.326060         0.021180
 C        -0.665067         1.264693        -0.115144
 C         0.288079        -0.035183        -0.003829
 O         1.510016         0.069636         0.205042
 C        -0.714061        -1.226171         0.224947
 C        -0.188641        -2.650405        -0.034712
 O        -1.659611        -0.857318        -0.879567
 H        -3.472981        -1.700445         0.597370
 H        -2.618297        -2.443265         1.952107
 H        -3.626223        -1.248373         2.202992
 H        -1.419645         0.039399         2.170835
 H        -2.892315         0.877753        -0.266789
 H        -0.769009         1.595255        -1.190349
 H        -0.642576         2.071017         0.805825
 H         0.857605        -2.730577         0.223058
 H        -0.949347        -3.452226         0.295292
 H        -0.377710        -2.867349        -1.074285
