19
Iteration:   654charge 0 multiplicity 1
 C        -2.842286        -1.543276         1.781492
 C        -1.722970        -0.575287         1.156380
 C        -2.018291         0.343144        -0.200038
 C        -0.804458         1.228387        -0.116895
 C         0.278952        -0.030042         0.084651
 O         1.463908         0.075608         0.314027
 C        -0.697178        -1.189862         0.054464
 C        -0.106800        -2.638659         0.031670
 O        -1.658769        -0.832859        -1.043263
 H        -2.502555        -2.499181         2.070478
 H        -3.176968        -1.107974         2.710076
 H        -3.758116        -1.653254         1.214327
 H        -1.232314         0.039550         1.903608
 H        -2.945124         0.758507        -0.466876
 H        -0.446878         1.573810        -1.203537
 H        -0.787214         2.102090         0.478669
 H         0.618178        -2.886963         0.848387
 H        -0.909993        -3.365819         0.176276
 H         0.441557        -3.015126        -0.839171
