19
Iteration:   356
 C        -2.745174        -1.521346         1.810784
 C        -1.744763        -0.562596         1.082750
 C        -2.048792         0.223776        -0.217525
 C        -0.765982         1.193664        -0.069759
 C         0.229781         0.026013         0.020963
 O         1.402458        -0.084865         0.334930
 C        -0.693983        -1.137586         0.033843
 C        -0.065507        -2.464896         0.078601
 O        -1.657533        -0.832118        -1.087715
 H        -2.187364        -2.320621         2.338650
 H        -3.247117        -0.867516         2.537243
 H        -3.456738        -2.004457         1.095913
 H        -1.357056         0.030168         1.965735
 H        -3.073409         0.775649        -0.437372
 H        -0.679670         1.684816        -0.990582
 H        -0.704569         1.650775         0.985125
 H         0.486770        -2.481227         1.030763
 H        -0.909891        -3.186046         0.247026
 H         0.448690        -2.738248        -0.886011
