19
Iteration:  3198charge 0 multiplicity 1
 C        -2.932755        -1.636586         1.368649
 C        -1.682921        -0.599812         1.186720
 C        -1.945670         0.341324         0.016615
 C        -0.664170         1.212280        -0.107542
 C         0.303333         0.000161         0.088781
 O         1.459369         0.069720         0.000737
 C        -0.676518        -1.187560         0.241541
 C        -0.275822        -2.574277         0.223143
 O        -1.634226        -0.766063        -0.873353
 H        -3.259892        -1.949633         0.348407
 H        -2.555294        -2.575171         1.902234
 H        -3.695772        -1.188834         2.037549
 H        -1.252542        -0.359027         2.188222
 H        -2.828815         0.789991        -0.256279
 H        -0.801859         1.564454        -1.193294
 H        -0.650515         2.058625         0.656394
 H         0.775639        -2.786870         0.468289
 H        -0.796438        -3.033776         1.049799
 H        -0.410342        -3.077717        -0.728372
