19
Iteration:  2828
 C        -2.973176        -1.414513         1.651997
 C        -1.712967        -0.699218         1.212856
 C        -2.023783         0.358288        -0.045027
 C        -0.715449         1.201590        -0.116054
 C         0.258493        -0.008679         0.096837
 O         1.459830         0.043962         0.167947
 C        -0.663235        -1.236350         0.119778
 C        -0.154624        -2.583094        -0.022271
 O        -1.575395        -0.865223        -1.007679
 H        -3.524197        -1.740632         0.764284
 H        -2.710299        -2.322653         2.194453
 H        -3.481102        -0.775238         2.331834
 H        -1.383217        -0.135587         2.088307
 H        -2.988513         0.793843        -0.181749
 H        -0.555209         1.787664        -1.021370
 H        -0.549072         1.798694         0.888369
 H         0.278255        -2.638326         0.950678
 H        -0.914104        -3.351358        -0.077213
 H         0.723826        -2.736145        -0.559201
