19
Iteration:  2606charge 0 multiplicity 1
 C        -2.784615        -1.630918         1.452956
 C        -1.760892        -0.559336         1.186893
 C        -2.018360         0.350000        -0.026983
 C        -0.700821         1.214145        -0.002526
 C         0.197635        -0.075641         0.026975
 O         1.461395        -0.134093         0.126394
 C        -0.764846        -1.121078         0.125489
 C        -0.118702        -2.419868         0.176933
 O        -1.682343        -0.764111        -0.988650
 H        -2.781865        -2.352606         0.617852
 H        -2.370412        -2.073910         2.403005
 H        -3.816285        -1.253357         1.619524
 H        -1.348848         0.064867         2.063626
 H        -3.034414         0.740879        -0.101596
 H        -0.319466         1.760308        -1.025326
 H        -0.231603         1.771342         0.880671
 H         0.770707        -2.389683         0.876913
 H        -0.798389        -3.096169         0.721490
 H         0.092935        -2.929759        -0.816195
