19
Iteration:  2466charge 0 multiplicity 1
 C        -2.837634        -1.689405         1.577691
 C        -1.789804        -0.624520         1.201670
 C        -2.018323         0.409057        -0.061713
 C        -0.695335         1.300088        -0.151240
 C         0.256975         0.090596         0.086900
 O         1.410417        -0.153331         0.068907
 C        -0.821002        -1.206780         0.098860
 C        -0.115758        -2.540349         0.243646
 O        -1.568111        -0.664677        -0.965827
 H        -3.628430        -1.924717         0.821653
 H        -2.109853        -2.629114         1.631739
 H        -3.290644        -1.568848         2.609390
 H        -1.421521        -0.464350         2.307262
 H        -3.071054         0.763852        -0.288436
 H        -0.263278         1.555085        -1.174407
 H        -0.490343         2.134077         0.526785
 H         0.579581        -2.573136         1.121159
 H        -0.835356        -3.379877         0.287411
 H         0.526657        -2.722203        -0.720554
