19
Iteration:  3462charge 0 multiplicity 1
 C        -3.053905        -1.564126         1.405154
 C        -1.715157        -0.747222         1.269279
 C        -1.936972         0.377362         0.040529
 C        -0.676706         1.200643        -0.154252
 C         0.332875         0.031512         0.089020
 O         1.507595         0.046617        -0.025261
 C        -0.699316        -1.144055         0.202781
 C        -0.188432        -2.637763         0.152221
 O        -1.649983        -0.763108        -0.820712
 H        -3.447447        -1.881366         0.436737
 H        -2.664845        -2.395447         2.004010
 H        -3.933007        -1.178766         1.965906
 H        -1.391724        -0.038428         2.020445
 H        -2.903693         0.845098        -0.168983
 H        -0.620491         1.666516        -1.244125
 H        -0.408509         1.972931         0.743791
 H         0.856882        -2.525941         0.454797
 H        -0.608034        -3.255825         0.860665
 H        -0.118542        -2.980051        -0.866213
