19
Iteration:   789
 C        -3.007837        -1.559675         1.680083
 C        -1.809875        -0.789549         1.174122
 C        -1.964720         0.271995        -0.070646
 C        -0.677042         1.221796         0.062010
 C         0.252807         0.031135         0.027015
 O         1.464074         0.068577        -0.054020
 C        -0.667692        -1.139480         0.132442
 C        -0.161548        -2.547498         0.182214
 O        -1.525569        -0.763544        -1.024910
 H        -2.820305        -1.973454         2.720876
 H        -3.905840        -0.911968         1.640339
 H        -3.147547        -2.378599         0.960996
 H        -1.428875        -0.193651         2.063089
 H        -2.970122         0.752698        -0.325950
 H        -0.508482         1.634110        -0.980218
 H        -0.448277         1.893396         0.977304
 H         0.311471        -2.582496         1.167874
 H        -1.026541        -3.289599         0.120519
 H         0.592311        -2.734158        -0.614781
