19
Iteration:  4409charge 0 multiplicity 1
 C        -2.823287        -1.565759         1.553732
 C        -1.776430        -0.600469         1.203624
 C        -1.937401         0.355301        -0.083977
 C        -0.712901         1.187943         0.062780
 C         0.261451         0.016323        -0.006015
 O         1.527314        -0.066905         0.020628
 C        -0.735712        -1.146273         0.206277
 C        -0.206362        -2.505916         0.104300
 O        -1.692793        -0.804526        -0.953976
 H        -3.065555        -2.177548         0.610754
 H        -2.653366        -2.425599         2.315954
 H        -3.879354        -1.031417         1.811926
 H        -1.358652        -0.215603         2.189587
 H        -2.898848         0.885327        -0.386021
 H        -0.453537         1.935440        -0.825469
 H        -0.494787         1.675467         1.064811
 H         0.262254        -2.803862         1.084098
 H        -0.985230        -3.328911         0.029557
 H         0.571111        -2.503857        -0.730072
