19
Iteration:  3693charge 0 multiplicity 1
 C        -2.942472        -1.527296         1.556986
 C        -1.745164        -0.713421         1.237489
 C        -2.007547         0.386055         0.036772
 C        -0.740070         1.166908        -0.065216
 C         0.269987        -0.020515         0.044716
 O         1.544166         0.057092         0.037176
 C        -0.742793        -1.197425         0.179370
 C        -0.178593        -2.586671         0.118885
 O        -1.572135        -0.762941        -0.968300
 H        -3.491812        -1.681571         0.662694
 H        -2.790946        -2.474351         2.010256
 H        -3.554806        -0.895228         2.194532
 H        -1.308352        -0.087397         2.108589
 H        -3.000863         0.868119        -0.159800
 H        -0.535877         1.432516        -1.157481
 H        -0.690988         2.089835         0.582914
 H         0.597354        -2.940238         0.769414
 H        -0.874444        -3.419209         0.073766
 H         0.371055        -2.728815        -0.768733
