19
Iteration:  3326
 C        -2.811342        -1.571085         1.538001
 C        -1.677678        -0.543855         1.210206
 C        -2.004809         0.354422         0.025162
 C        -0.706885         1.142872        -0.204246
 C         0.325727         0.039532         0.000814
 O         1.495632         0.098530         0.263765
 C        -0.728601        -1.223201         0.118292
 C        -0.225856        -2.658962         0.092911
 O        -1.725160        -0.809153        -0.922844
 H        -3.307148        -1.572474         0.581007
 H        -2.462569        -2.599334         1.706806
 H        -3.466293        -1.207320         2.275726
 H        -1.330646         0.022032         2.114860
 H        -3.029671         0.806954        -0.033563
 H        -0.634659         1.603412        -1.229476
 H        -0.325675         2.017165         0.377999
 H        -0.010212        -3.037925         1.067727
 H        -1.121418        -3.249177        -0.346275
 H         0.543129        -2.926222        -0.610089
