19
Iteration:  1367
 C        -2.929322        -1.477429         1.526839
 C        -1.696807        -0.640136         1.225649
 C        -1.941677         0.295065         0.131215
 C        -0.786037         1.229287        -0.113382
 C         0.309343         0.031692         0.025614
 O         1.511098         0.095364         0.092405
 C        -0.658485        -1.200219         0.129750
 C        -0.212252        -2.633813        -0.021598
 O        -1.623037        -0.866979        -0.862373
 H        -2.811967        -2.348320         2.216046
 H        -3.693744        -0.909900         2.088491
 H        -3.250073        -1.902786         0.551783
 H        -1.419144        -0.004962         2.070342
 H        -2.903619         0.632440        -0.116841
 H        -0.708039         1.684718        -1.197659
 H        -0.820570         1.869223         0.815455
 H         0.777390        -2.913915         0.347971
 H        -0.917983        -3.277187         0.510030
 H        -0.241633        -2.775338        -1.085747
