19
Iteration:  2021charge 0 multiplicity 1
 C        -2.733493        -1.543395         1.624250
 C        -1.632292        -0.628594         1.193558
 C        -1.988651         0.301542         0.088728
 C        -0.704427         1.214628        -0.067242
 C         0.300474        -0.008366        -0.002904
 O         1.517082         0.180245         0.154150
 C        -0.690584        -1.284671         0.118622
 C        -0.347271        -2.724089        -0.030376
 O        -1.749522        -0.735210        -0.943023
 H        -3.531024        -0.897478         1.974579
 H        -3.198454        -1.895134         0.672187
 H        -2.432764        -2.387973         2.267746
 H        -1.050853        -0.194176         2.031001
 H        -3.065506         0.684998        -0.012273
 H        -0.904317         1.842196        -0.996071
 H        -0.457853         1.945160         0.754513
 H        -0.210963        -3.348788         0.823650
 H        -1.177757        -3.098498        -0.573611
 H         0.534920        -2.729881        -0.686639
