19
Iteration:  2040
 C        -2.799981        -1.637212         1.677103
 C        -1.618977        -0.676545         1.246742
 C        -1.932886         0.373841         0.058271
 C        -0.749724         1.185081        -0.048831
 C         0.208281         0.040546         0.059814
 O         1.439805         0.024266         0.069165
 C        -0.716454        -1.142018         0.048445
 C        -0.312395        -2.610240        -0.069369
 O        -1.608922        -0.708674        -0.943636
 H        -3.749612        -1.086707         1.762375
 H        -2.998219        -2.442725         1.019877
 H        -2.412343        -2.003356         2.624128
 H        -1.150699        -0.208520         2.179318
 H        -3.031528         0.852291        -0.084436
 H        -0.509632         1.558154        -1.119222
 H        -0.497570         1.921832         0.716194
 H        -0.132495        -2.970888         0.960456
 H        -1.098344        -3.285358        -0.438753
 H         0.580865        -2.819055        -0.572612
