19
Iteration:  3718charge 0 multiplicity 1
 C        -3.034207        -1.502075         1.448506
 C        -1.746511        -0.724795         1.314267
 C        -1.961372         0.339232         0.089312
 C        -0.666474         1.212376        -0.125702
 C         0.295412         0.058240         0.056905
 O         1.488088         0.010158        -0.016328
 C        -0.650074        -1.166581         0.228897
 C        -0.134469        -2.565849         0.027399
 O        -1.624682        -0.824134        -0.860794
 H        -3.315224        -2.106304         0.558916
 H        -2.920510        -2.144605         2.328330
 H        -3.852032        -0.817500         1.627742
 H        -1.490887        -0.083564         2.182898
 H        -2.949158         0.828760        -0.086253
 H        -0.798541         1.705788        -1.055002
 H        -0.632125         1.986313         0.675584
 H         0.655721        -2.896483         0.598633
 H        -0.828390        -3.352385         0.294282
 H         0.324092        -2.942973        -0.838958
