19
Iteration:  3828
 C        -2.895264        -1.535713         1.514181
 C        -1.660942        -0.595292         1.193807
 C        -1.958975         0.337776        -0.004253
 C        -0.708087         1.195985        -0.082917
 C         0.289029         0.017780         0.059428
 O         1.509014         0.084158         0.111116
 C        -0.723356        -1.119314         0.153303
 C        -0.249145        -2.687462         0.026852
 O        -1.669867        -0.882347        -0.863939
 H        -3.661999        -1.627590         0.686375
 H        -2.565936        -2.566902         1.802003
 H        -3.417235        -0.950463         2.270337
 H        -1.192470        -0.163359         2.246540
 H        -2.850788         0.863147        -0.335119
 H        -0.751700         1.879832        -0.953253
 H        -0.652624         1.839541         0.849307
 H         0.504987        -2.844523         0.789629
 H        -1.087144        -3.389091         0.000425
 H         0.360714        -2.675762        -0.907970
