19
Iteration:  3030charge 0 multiplicity 1
 C        -2.831999        -1.559218         1.483298
 C        -1.661555        -0.639841         1.190803
 C        -2.001713         0.333943        -0.010328
 C        -0.642804         1.160704        -0.278792
 C         0.314075        -0.004612         0.089437
 O         1.487153         0.080456         0.232114
 C        -0.742309        -1.184601         0.091665
 C        -0.239582        -2.555651         0.147343
 O        -1.757899        -0.815825        -0.872890
 H        -3.308016        -1.774863         0.516586
 H        -2.390633        -2.520839         1.845118
 H        -3.385595        -1.129602         2.338834
 H        -1.274715        -0.176836         2.104351
 H        -3.018606         0.818089        -0.226254
 H        -0.502773         1.800928        -1.271208
 H        -0.522962         2.046202         0.539218
 H        -0.135996        -2.880725         1.151252
 H        -0.948721        -3.286603        -0.195771
 H         0.716402        -2.776955        -0.381049
