19
Iteration:  1739charge 0 multiplicity 1
 C        -2.864016        -1.568165         1.631285
 C        -1.699031        -0.614091         1.272174
 C        -1.936488         0.272015         0.110189
 C        -0.744486         1.289291        -0.207564
 C         0.297006         0.063743         0.054165
 O         1.542118         0.125775         0.121302
 C        -0.614177        -1.207863         0.039787
 C        -0.347844        -2.699967        -0.027935
 O        -1.657000        -0.823037        -0.879661
 H        -2.701331        -2.034570         2.639669
 H        -3.857801        -1.068013         1.747341
 H        -2.973063        -2.356877         0.848871
 H        -1.604119         0.048115         2.215467
 H        -2.875057         0.632064        -0.086562
 H        -0.703947         1.664429        -1.243906
 H        -0.559578         2.138348         0.413885
 H        -0.100850        -3.221561         0.944533
 H        -1.281506        -3.096973        -0.520621
 H         0.640696        -3.003231        -0.561944
