19
Iteration:   345
 C        -2.743411        -1.501878         1.742478
 C        -1.768816        -0.505697         1.168572
 C        -2.101173         0.275577        -0.153787
 C        -0.806131         1.111744        -0.124986
 C         0.263050        -0.020813         0.074365
 O         1.462304        -0.036264         0.305298
 C        -0.664697        -1.136570         0.012068
 C        -0.147170        -2.481791         0.087118
 O        -1.635920        -0.870992        -1.031959
 H        -2.274420        -2.446092         2.089854
 H        -3.410859        -1.194184         2.566403
 H        -3.418971        -1.759646         0.888325
 H        -1.219947         0.194110         1.877820
 H        -3.184186         0.500709        -0.588329
 H        -0.453549         1.808596        -0.835023
 H        -0.776427         1.939639         0.721688
 H         0.732452        -2.599970         0.742791
 H        -0.873377        -3.324051         0.075107
 H         0.501815        -2.534140        -0.855322
