19
Iteration:  2619charge 0 multiplicity 1
 C        -2.834931        -1.638870         1.441778
 C        -1.764358        -0.643544         1.141202
 C        -1.982130         0.332908         0.012295
 C        -0.652152         1.240845        -0.099894
 C         0.247483         0.092846         0.051369
 O         1.437897        -0.158213         0.085240
 C        -0.692967        -1.127678         0.159365
 C        -0.146520        -2.512611         0.239286
 O        -1.666192        -0.723897        -0.924796
 H        -3.122037        -2.272440         0.545854
 H        -2.599275        -2.413520         2.246146
 H        -3.776668        -1.126819         1.787048
 H        -1.368093        -0.258619         2.165040
 H        -2.965417         0.847731        -0.218290
 H        -0.691351         1.862558        -1.068698
 H        -0.712898         2.030089         0.759833
 H         0.859901        -2.434309         0.625414
 H        -0.855207        -3.202479         0.770555
 H         0.020192        -2.885977        -0.800756
