19
Iteration:  4241charge 0 multiplicity 1
 C        -2.770579        -1.545402         1.499248
 C        -1.690494        -0.559515         1.206170
 C        -1.980853         0.333467        -0.012259
 C        -0.681586         1.194563        -0.062920
 C         0.264567         0.010851        -0.051178
 O         1.487681         0.083778         0.232498
 C        -0.715814        -1.183428         0.161415
 C        -0.295194        -2.657242         0.015178
 O        -1.688050        -0.836631        -0.926995
 H        -3.015031        -2.239146         0.591798
 H        -2.567741        -2.142260         2.476615
 H        -3.729095        -0.902139         1.705712
 H        -1.082892        -0.123436         2.046978
 H        -2.958843         0.806410        -0.153866
 H        -0.481243         1.954223        -0.779602
 H        -0.346142         1.655149         0.879055
 H         0.684973        -3.035284         0.335946
 H        -1.025830        -3.177544         0.661437
 H        -0.603483        -2.906902        -0.993461
