19
Iteration:  1074charge 0 multiplicity 1
 C        -2.958610        -1.483498         1.582602
 C        -1.648778        -0.683667         1.215946
 C        -1.994320         0.336843        -0.034971
 C        -0.818931         1.223088        -0.081565
 C         0.305870         0.014735         0.122496
 O         1.490001         0.165422         0.048155
 C        -0.665858        -1.272003         0.181226
 C        -0.247590        -2.706710         0.004531
 O        -1.511871        -0.780253        -0.922095
 H        -2.791637        -2.097818         2.455552
 H        -3.812348        -0.840240         1.817073
 H        -3.335129        -2.121085         0.761944
 H        -1.229920        -0.188753         2.117703
 H        -3.119848         0.678939        -0.122971
 H        -0.591065         1.758443        -0.981976
 H        -0.686851         1.809663         0.920826
 H         0.891975        -2.885246         0.120938
 H        -0.803417        -3.337722         0.698606
 H        -0.594561        -3.117727        -0.964342
