19
Iteration:  2652
 C        -3.025319        -1.511687         1.419253
 C        -1.842789        -0.653472         1.228540
 C        -1.971268         0.254744         0.072795
 C        -0.628020         1.115534        -0.119435
 C         0.329213         0.060700         0.089769
 O         1.509682         0.144582        -0.008066
 C        -0.677534        -1.214077         0.228845
 C        -0.199787        -2.628237         0.135543
 O        -1.551128        -0.776680        -0.873181
 H        -3.733061        -1.558135         0.530001
 H        -2.688721        -2.584081         1.658797
 H        -3.675541        -1.228727         2.297188
 H        -1.411430        -0.066073         2.137875
 H        -2.985015         0.697868        -0.199651
 H        -0.695225         1.639964        -1.183709
 H        -0.541924         2.033238         0.637657
 H         0.805591        -2.667188         0.541502
 H        -0.815691        -3.420378         0.701124
 H        -0.172529        -2.850974        -0.956527
