19
Iteration:   355charge 0 multiplicity 1
 C        -2.748059        -1.521684         1.811704
 C        -1.742818        -0.551498         1.089787
 C        -2.055824         0.224905        -0.217075
 C        -0.770104         1.188100        -0.070757
 C         0.232129         0.019975         0.023256
 O         1.407087        -0.083313         0.333396
 C        -0.683954        -1.135596         0.029932
 C        -0.073464        -2.462391         0.078787
 O        -1.657028        -0.835547        -1.085357
 H        -2.194179        -2.328827         2.309793
 H        -3.250814        -0.893594         2.535796
 H        -3.437557        -1.971250         1.066598
 H        -1.366809         0.030556         1.964605
 H        -3.114057         0.755947        -0.459991
 H        -0.656040         1.657981        -0.965532
 H        -0.701957         1.635722         0.981139
 H         0.511817        -2.482496         1.028744
 H        -0.906170        -3.178413         0.231798
 H         0.445386        -2.709528        -0.890787
