19
Iteration:  4479
 C        -2.960361        -1.536830         1.475677
 C        -1.741074        -0.544357         1.254287
 C        -1.938586         0.327973         0.030995
 C        -0.675250         1.204901        -0.132159
 C         0.322356        -0.007134        -0.000090
 O         1.493146         0.054472         0.190407
 C        -0.717023        -1.216879         0.227212
 C        -0.169458        -2.618311        -0.056392
 O        -1.652675        -0.839354        -0.871102
 H        -3.618004        -1.800448         0.601219
 H        -2.576965        -2.488245         1.921525
 H        -3.619766        -1.121950         2.306423
 H        -1.355731        -0.070377         2.117079
 H        -2.831328         0.875385        -0.192702
 H        -0.852539         1.745130        -1.037624
 H        -0.533620         2.118619         0.586695
 H         0.872156        -2.839551         0.356430
 H        -0.862131        -3.320419         0.481999
 H        -0.283143        -2.892181        -1.112334
