19
Iteration:   336charge 0 multiplicity 1
 C        -2.760369        -1.504381         1.628835
 C        -1.779157        -0.493927         1.195958
 C        -2.050165         0.275026        -0.105623
 C        -0.791799         1.166961        -0.198629
 C         0.277795         0.010251         0.129286
 O         1.495126         0.038114         0.267911
 C        -0.757965        -1.191021         0.107376
 C        -0.130076        -2.571723         0.030610
 O        -1.622687        -0.888440        -0.951767
 H        -2.262263        -2.476887         1.861584
 H        -3.381181        -1.236131         2.528692
 H        -3.490346        -1.778790         0.835258
 H        -1.246108         0.127410         1.992015
 H        -2.984861         0.781586        -0.330878
 H        -0.597084         1.730658        -1.229244
 H        -0.915237         1.938527         0.619623
 H         0.582784        -2.708105         0.838084
 H        -0.842208        -3.442475         0.082817
 H         0.306653        -2.665994        -0.979440
