19
Iteration:  3683
 C        -2.919432        -1.534236         1.585242
 C        -1.730535        -0.625204         1.191110
 C        -1.986160         0.345584        -0.006984
 C        -0.641946         1.188571        -0.082481
 C         0.276663         0.015121         0.121778
 O         1.437896         0.044225         0.057384
 C        -0.691701        -1.213577         0.165171
 C        -0.170629        -2.631272         0.091193
 O        -1.625703        -0.797077        -1.008558
 H        -3.592952        -1.741326         0.786955
 H        -2.570649        -2.498080         1.912944
 H        -3.464799        -1.175423         2.439724
 H        -1.251145        -0.187522         2.135866
 H        -2.939785         0.874423        -0.275292
 H        -0.737743         1.812171        -0.940339
 H        -0.512175         1.974834         0.739235
 H         0.327294        -2.615429         0.987800
 H        -1.055089        -3.252090         0.130625
 H         0.398289        -2.726866        -0.759092
