19
Iteration:  3110
 C        -2.905823        -1.508800         1.665457
 C        -1.776277        -0.571527         1.114369
 C        -2.079003         0.353702        -0.129036
 C        -0.707226         1.156147        -0.057980
 C         0.268293        -0.011713         0.045475
 O         1.463148        -0.054317         0.165543
 C        -0.702136        -1.199225         0.149126
 C        -0.060416        -2.604767         0.046174
 O        -1.605831        -0.785535        -0.973845
 H        -3.499112        -2.174532         0.973949
 H        -2.626478        -2.028569         2.659820
 H        -3.656327        -0.740194         1.959918
 H        -1.231505         0.037029         1.878578
 H        -3.024877         0.764773        -0.258489
 H        -0.479899         2.032133        -0.769085
 H        -0.787452         1.843141         0.854242
 H         0.629181        -2.640757         0.955480
 H        -0.862596        -3.397621         0.230956
 H         0.601926        -2.669923        -0.836911
