19
Iteration:  1520
 C        -2.800626        -1.491353         1.549991
 C        -1.714682        -0.595993         1.217050
 C        -2.026030         0.346101         0.053649
 C        -0.748752         1.149711        -0.108635
 C         0.236941        -0.007283         0.082890
 O         1.411244        -0.016069         0.027458
 C        -0.628423        -1.198218         0.157686
 C        -0.122927        -2.586705         0.087238
 O        -1.675572        -0.781848        -0.939661
 H        -2.491042        -2.498733         1.995075
 H        -3.587844        -0.919203         2.122869
 H        -3.369178        -1.719429         0.610670
 H        -1.089463        -0.307885         2.089645
 H        -2.945670         0.794392        -0.108692
 H        -0.656452         2.085421        -0.834807
 H        -0.735604         1.835145         0.803966
 H         0.391966        -3.011725         0.996311
 H        -1.019177        -3.271375        -0.093367
 H         0.612459        -2.655900        -0.742052
