19
Iteration:   308
 C        -2.974107        -1.620856         1.487291
 C        -1.698231        -0.712396         1.282394
 C        -2.014877         0.300137         0.071908
 C        -0.638442         1.163719        -0.357423
 C         0.290746         0.044362         0.012548
 O         1.466272         0.228288         0.194398
 C        -0.634178        -1.168852         0.175031
 C        -0.171244        -2.603403         0.119021
 O        -1.654628        -0.808214        -0.854320
 H        -2.778425        -2.575793         1.954403
 H        -3.660095        -1.055409         2.108587
 H        -3.454840        -1.804909         0.532329
 H        -1.281912        -0.373547         2.202303
 H        -2.913437         0.935083        -0.042724
 H        -0.611905         1.269090        -1.407001
 H        -0.466037         1.970010         0.287196
 H         0.543103        -3.000836         0.853761
 H        -1.084037        -3.184053         0.245895
 H         0.038630        -2.764522        -0.931390
