19
Iteration:  2617charge 0 multiplicity 1
 C        -2.826575        -1.638454         1.447594
 C        -1.770360        -0.626352         1.132401
 C        -1.983259         0.313745         0.014116
 C        -0.648634         1.241652        -0.087534
 C         0.256730         0.076478         0.048597
 O         1.421372        -0.159364         0.090363
 C        -0.703379        -1.126188         0.155187
 C        -0.146104        -2.489386         0.231072
 O        -1.669412        -0.726390        -0.930941
 H        -3.047232        -2.246913         0.551758
 H        -2.537832        -2.362917         2.263864
 H        -3.767800        -1.126551         1.731789
 H        -1.403032        -0.271221         2.145508
 H        -2.958910         0.793603        -0.153321
 H        -0.640032         1.869895        -1.114097
 H        -0.648248         1.977121         0.798539
 H         0.882734        -2.444361         0.707647
 H        -0.827886        -3.164674         0.761209
 H         0.003221        -2.910480        -0.817233
