19
Iteration:  1783charge 0 multiplicity 1
 C        -2.870967        -1.546370         1.676421
 C        -1.756369        -0.562180         1.205048
 C        -1.966369         0.342539         0.010742
 C        -0.679738         1.162822        -0.028965
 C         0.262097        -0.003942         0.092911
 O         1.456552         0.062079         0.033456
 C        -0.726432        -1.201929         0.058745
 C        -0.140826        -2.622353        -0.004088
 O        -1.671265        -0.793482        -0.951538
 H        -2.673438        -2.017705         2.650687
 H        -3.829002        -1.033051         1.933795
 H        -3.165553        -2.392924         1.001776
 H        -1.156373        -0.121638         2.072209
 H        -2.902340         0.751655        -0.132583
 H        -0.533510         1.593742        -1.017463
 H        -0.533656         2.002505         0.609584
 H         0.192190        -2.784130         1.048722
 H        -0.985117        -3.324574        -0.231022
 H         0.792259        -2.830911        -0.656525
