19
Iteration:   444
 C        -2.927354        -1.520425         1.415182
 C        -1.722553        -0.562203         1.262960
 C        -1.950925         0.254464         0.007460
 C        -0.742799         1.127640        -0.195809
 C         0.277931         0.040203         0.066609
 O         1.473090         0.154964         0.106862
 C        -0.654034        -1.189558         0.241839
 C        -0.172314        -2.639847         0.080115
 O        -1.654745        -0.853590        -0.824656
 H        -2.525788        -2.299541         2.087630
 H        -3.821253        -1.016375         1.849692
 H        -3.183830        -1.959217         0.447616
 H        -1.369896        -0.036778         2.175315
 H        -2.997600         0.835091        -0.103004
 H        -0.640664         1.447151        -1.191156
 H        -0.496680         2.022282         0.459833
 H         0.744486        -2.885572         0.619939
 H        -1.031632        -3.352168         0.307578
 H         0.163770        -2.737314        -0.975134
