19
Iteration:   516
 C        -2.896636        -1.549755         1.484012
 C        -1.873210        -0.562688         1.183638
 C        -1.969882         0.249580        -0.084572
 C        -0.712476         1.161741        -0.004559
 C         0.258276        -0.066871         0.078032
 O         1.437928        -0.001914        -0.112547
 C        -0.760046        -1.162691         0.275378
 C        -0.133104        -2.462886         0.244404
 O        -1.514282        -0.801734        -0.921856
 H        -2.342015        -2.409160         1.997114
 H        -3.762447        -1.308707         2.132875
 H        -3.384321        -1.931248         0.516025
 H        -1.458862         0.001780         2.031757
 H        -2.878768         0.775496        -0.411427
 H        -0.426487         1.865734        -0.842994
 H        -0.701494         1.703608         1.010856
 H         0.671609        -2.409382         0.992989
 H        -0.743310        -3.338767         0.379710
 H         0.519524        -2.410544        -0.653655
