19
Iteration:  3022charge 0 multiplicity 1
 C        -2.810511        -1.505470         1.507658
 C        -1.723256        -0.573265         1.153979
 C        -1.983210         0.304101        -0.062612
 C        -0.644126         1.152415        -0.140223
 C         0.278506         0.021208         0.036318
 O         1.505263         0.038584         0.227471
 C        -0.754116        -1.154903         0.115947
 C        -0.126698        -2.572794         0.161800
 O        -1.794204        -0.828291        -0.906822
 H        -3.470403        -1.709689         0.615556
 H        -2.264675        -2.459502         1.821962
 H        -3.541291        -1.176144         2.264674
 H        -1.128120        -0.250779         2.060120
 H        -2.892445         0.859612        -0.202197
 H        -0.571636         1.508080        -1.186389
 H        -0.802241         1.855314         0.576178
 H         0.012068        -2.945305         1.221607
 H        -0.992229        -3.208435        -0.317015
 H         0.662027        -2.928521        -0.529379
