19
Iteration:  2667
 C        -3.062060        -1.491279         1.444251
 C        -1.716095        -0.624246         1.214352
 C        -1.919032         0.308893        -0.064638
 C        -0.766511         1.184878        -0.013396
 C         0.318883        -0.000305         0.068630
 O         1.511301         0.174579        -0.002130
 C        -0.634500        -1.205489         0.296757
 C        -0.199583        -2.615139         0.100112
 O        -1.573465        -0.914201        -0.876096
 H        -3.757091        -1.332056         0.621420
 H        -3.020933        -2.576765         1.535964
 H        -3.493515        -1.081885         2.371585
 H        -1.444248        -0.303718         2.204629
 H        -2.841440         0.808585        -0.329531
 H        -0.538847         1.600330        -0.894118
 H        -0.628468         1.862241         0.759740
 H         0.820537        -2.834876         0.430599
 H        -1.001345        -3.214684         0.465249
 H        -0.115515        -2.819393        -0.939114
