19
Iteration:   682charge 0 multiplicity 1
 C        -2.835713        -1.477283         1.484291
 C        -1.554075        -0.644900         1.188816
 C        -1.955568         0.260977        -0.021452
 C        -0.764603         1.156879        -0.199342
 C         0.299070         0.023873        -0.064233
 O         1.436187         0.174238         0.357288
 C        -0.702355        -1.189662         0.130306
 C        -0.256628        -2.563548         0.094302
 O        -1.694186        -0.933102        -0.926975
 H        -2.717396        -2.594452         1.650315
 H        -3.272159        -1.123178         2.466597
 H        -3.678429        -1.268654         0.792916
 H        -1.127191        -0.047130         2.032835
 H        -3.024423         0.722883        -0.037193
 H        -0.703165         1.701652        -1.073781
 H        -0.553451         1.944794         0.623940
 H         0.679696        -2.918039         0.491077
 H        -0.948740        -3.330309         0.512600
 H        -0.057840        -2.781863        -0.966259
