19
Iteration:    47charge 0 multiplicity 1
 C        -2.934083        -1.556431         1.556826
 C        -1.709673        -0.710774         1.265221
 C        -2.032069         0.280846         0.034581
 C        -0.724355         1.142128        -0.287443
 C         0.280096         0.059919         0.006982
 O         1.495749         0.150067         0.270127
 C        -0.637209        -1.182166         0.137583
 C        -0.198123        -2.582590         0.025757
 O        -1.605943        -0.783732        -0.931379
 H        -2.611196        -2.404009         2.164863
 H        -3.571897        -1.006382         2.274749
 H        -3.541402        -1.966145         0.740612
 H        -1.274849        -0.366348         2.242945
 H        -3.053993         0.639080        -0.196631
 H        -0.801270         1.448481        -1.260700
 H        -0.474073         2.100035         0.360491
 H         0.788501        -2.598782         0.437687
 H        -0.781922        -3.276723         0.640849
 H        -0.216213        -2.875660        -0.969538
