19
Iteration:  1323charge 0 multiplicity 1
 C        -2.899425        -1.585636         1.598139
 C        -1.755368        -0.643684         1.169803
 C        -1.936022         0.329842         0.004982
 C        -0.707511         1.169216        -0.065747
 C         0.267935         0.074978         0.061492
 O         1.513054         0.116063         0.075414
 C        -0.716248        -1.191158         0.120504
 C        -0.265295        -2.657877         0.046829
 O        -1.607992        -0.776714        -0.937963
 H        -2.505340        -2.528044         2.040235
 H        -3.281661        -1.190907         2.556111
 H        -3.613796        -1.841698         0.777713
 H        -1.193706        -0.369206         2.074010
 H        -2.801686         0.976114        -0.115791
 H        -0.845593         1.677291        -1.141476
 H        -0.535085         2.022768         0.659905
 H         0.550102        -2.729404         0.807348
 H        -0.949770        -3.353460         0.515776
 H         0.069526        -3.074790        -0.884688
