19
Iteration:  4465
 C        -2.993736        -1.518235         1.529132
 C        -1.782220        -0.703416         1.207607
 C        -1.974314         0.340122         0.063846
 C        -0.678093         1.158114        -0.192562
 C         0.277954         0.034421         0.065950
 O         1.532792         0.010748         0.142677
 C        -0.650687        -1.159537         0.134171
 C        -0.157137        -2.559228         0.038830
 O        -1.653106        -0.750415        -0.854964
 H        -3.583366        -1.623638         0.565867
 H        -2.704547        -2.543693         1.947765
 H        -3.689952        -1.023046         2.329503
 H        -1.420166        -0.371466         2.225416
 H        -2.966068         0.771170        -0.140839
 H        -0.532852         1.393728        -1.298677
 H        -0.440128         1.741229         0.639625
 H         0.907555        -2.495259         0.355385
 H        -0.814365        -3.331236         0.413603
 H        -0.100218        -2.825494        -1.072827
