19
Iteration:  1287charge 0 multiplicity 1
 C        -2.764444        -1.623275         1.581765
 C        -1.727065        -0.595346         1.190797
 C        -1.978245         0.400713         0.038651
 C        -0.730709         1.204717        -0.030239
 C         0.195214         0.037109         0.051879
 O         1.440671        -0.179568         0.089450
 C        -0.763840        -1.135971         0.097166
 C        -0.115332        -2.491536         0.105802
 O        -1.687897        -0.749785        -1.011161
 H        -2.155329        -2.317601         2.200255
 H        -3.665044        -1.170555         2.026654
 H        -3.282707        -2.202213         0.800139
 H        -1.191156        -0.195867         2.048734
 H        -2.855431         0.826846        -0.315812
 H        -0.718900         1.730134        -1.030837
 H        -0.664079         1.950428         0.828445
 H         0.367531        -2.450452         1.099953
 H        -0.810568        -3.320199        -0.045931
 H         0.766558        -2.580177        -0.572824
