19
Iteration:  4495
 C        -2.816729        -1.505996         1.523643
 C        -1.730859        -0.564011         1.222237
 C        -1.979177         0.358230        -0.059490
 C        -0.724142         1.183079        -0.124330
 C         0.304559         0.021171         0.105973
 O         1.476027         0.059480         0.206729
 C        -0.681793        -1.212825         0.147795
 C        -0.285386        -2.669434        -0.018199
 O        -1.678938        -0.839704        -0.867694
 H        -3.165404        -1.766849         0.538349
 H        -2.447233        -2.461458         1.857518
 H        -3.589406        -1.014368         2.069513
 H        -1.211816        -0.066072         2.114555
 H        -3.043308         0.663192        -0.215009
 H        -0.301642         1.840728        -1.003802
 H        -0.544040         1.919302         0.761374
 H         0.762137        -2.842248         0.212306
 H        -0.776025        -3.526160         0.512856
 H        -0.249015        -2.624150        -1.109455
