19
Iteration:  2712charge 0 multiplicity 1
 C        -2.965108        -1.562267         1.630110
 C        -1.770884        -0.713383         1.129163
 C        -2.033149         0.333460        -0.037997
 C        -0.655968         1.207542        -0.113251
 C         0.279359        -0.080729         0.086875
 O         1.457672        -0.003376         0.092362
 C        -0.746429        -1.166013         0.127272
 C        -0.116368        -2.517591         0.211091
 O        -1.585933        -0.708467        -1.015152
 H        -3.611055        -1.755258         0.783651
 H        -2.562594        -2.523289         1.911716
 H        -3.410514        -1.082544         2.497039
 H        -1.401127        -0.138743         1.964709
 H        -2.976095         0.778641        -0.307567
 H        -0.420756         1.754133        -0.942111
 H        -0.590415         1.836728         0.698293
 H         0.593648        -2.672729         1.062903
 H        -0.870457        -3.216324         0.009012
 H         0.630947        -2.642967        -0.591242
