19
Iteration:  4385charge 0 multiplicity 1
 C        -2.857964        -1.650342         1.552591
 C        -1.789092        -0.581689         1.155955
 C        -2.010020         0.402525        -0.017962
 C        -0.708647         1.238860        -0.032766
 C         0.314634        -0.012129         0.162358
 O         1.503089         0.010288        -0.067798
 C        -0.689550        -1.168832         0.184829
 C        -0.268541        -2.647278         0.101556
 O        -1.561085        -0.701977        -0.910050
 H        -3.147033        -2.413305         0.813534
 H        -2.573368        -2.291868         2.424183
 H        -3.805720        -1.107265         1.835006
 H        -1.454263        -0.164964         2.161633
 H        -3.072218         0.628645        -0.116752
 H        -0.408457         1.532556        -1.080307
 H        -0.484923         2.025034         0.655778
 H        -0.151276        -3.053896         1.090352
 H        -1.189061        -3.252576        -0.158331
 H         0.560108        -2.839057        -0.538156
