19
Iteration:  3215
 C        -2.888886        -1.621850         1.492004
 C        -1.834365        -0.680263         1.220267
 C        -2.013059         0.363801         0.041410
 C        -0.726772         1.234871        -0.109637
 C         0.317427         0.084291         0.038155
 O         1.513602        -0.009961         0.020584
 C        -0.650156        -1.189318         0.172997
 C        -0.208168        -2.650771         0.265039
 O        -1.567569        -0.678215        -1.009157
 H        -3.263569        -2.152343         0.634565
 H        -2.757041        -2.435253         2.195183
 H        -3.726688        -1.090434         1.933305
 H        -1.461691        -0.223963         2.182908
 H        -3.114620         0.808249        -0.107631
 H        -0.654242         1.555756        -1.143247
 H        -0.475119         1.910349         0.726355
 H         0.881118        -2.565320         0.467057
 H        -0.823608        -3.289863         0.953067
 H        -0.456688        -3.028760        -0.747344
