19
Iteration:   514
 C        -2.873328        -1.535398         1.479054
 C        -1.858578        -0.548694         1.160364
 C        -1.988125         0.269423        -0.096986
 C        -0.722429         1.121961         0.034148
 C         0.246470        -0.057442         0.076877
 O         1.444621        -0.013437        -0.112035
 C        -0.785794        -1.172662         0.272081
 C        -0.127386        -2.448537         0.253148
 O        -1.506323        -0.800864        -0.926403
 H        -2.363833        -2.438989         1.987055
 H        -3.735443        -1.302809         2.175111
 H        -3.447543        -1.956408         0.566934
 H        -1.425121         0.003121         2.022144
 H        -2.847937         0.712603        -0.428464
 H        -0.462787         1.894045        -0.812070
 H        -0.704721         1.630775         0.951395
 H         0.705321        -2.355387         0.989758
 H        -0.691173        -3.337822         0.388404
 H         0.497334        -2.406009        -0.651001
