19
Iteration:  1819charge 0 multiplicity 1
 C        -2.901884        -1.581236         1.628122
 C        -1.755644        -0.590953         1.218643
 C        -1.976233         0.327378         0.075474
 C        -0.727087         1.218314        -0.025800
 C         0.209760         0.002315        -0.004269
 O         1.427748        -0.174946         0.018264
 C        -0.725826        -1.161667         0.090455
 C        -0.045985        -2.430339         0.126681
 O        -1.642568        -0.763334        -1.039353
 H        -2.420254        -2.505734         1.905356
 H        -3.491511        -1.126050         2.414522
 H        -3.523411        -1.735375         0.756211
 H        -1.233922        -0.217015         2.137410
 H        -2.998597         0.784421        -0.004032
 H        -0.608789         1.654033        -0.978484
 H        -0.523832         1.872588         0.862873
 H         0.689526        -2.194628         0.872325
 H        -0.584152        -3.226329         0.548033
 H         0.429918        -2.743719        -0.773606
