19
Iteration:  1319charge 0 multiplicity 1
 C        -2.898184        -1.593866         1.592382
 C        -1.740224        -0.656742         1.177115
 C        -1.973550         0.318224         0.019347
 C        -0.722620         1.189289        -0.084738
 C         0.297853         0.066493         0.039883
 O         1.497870         0.074302         0.082240
 C        -0.705502        -1.161404         0.133408
 C        -0.255792        -2.656682         0.064308
 O        -1.613112        -0.719987        -0.946614
 H        -2.464775        -2.511651         2.037067
 H        -3.278622        -1.161355         2.531086
 H        -3.657538        -1.925218         0.878884
 H        -1.134640        -0.411087         2.046080
 H        -2.867291         0.828267        -0.335768
 H        -0.791632         1.549060        -1.084060
 H        -0.548223         1.945835         0.692835
 H         0.556729        -2.693119         0.827216
 H        -0.981356        -3.333514         0.530259
 H         0.216845        -3.050865        -0.873448
