19
Iteration:  2155charge 0 multiplicity 1
 C        -2.884214        -1.591168         1.487439
 C        -1.765260        -0.630311         1.254342
 C        -1.878480         0.407919         0.092664
 C        -0.665086         1.200313         0.001831
 C         0.264511         0.046776         0.066428
 O         1.521091         0.130190        -0.112563
 C        -0.677377        -1.251363         0.262154
 C        -0.259771        -2.644150         0.041066
 O        -1.668399        -0.811709        -0.892275
 H        -3.576131        -1.431348         2.363424
 H        -3.636145        -1.582163         0.628493
 H        -2.645635        -2.687171         1.495929
 H        -1.398465        -0.177139         2.167649
 H        -2.752035         0.906428        -0.001890
 H        -0.604327         1.441169        -1.019663
 H        -0.689453         2.005610         0.793846
 H         0.802372        -2.824489         0.207914
 H        -0.944769        -3.269419         0.670520
 H        -0.573928        -2.966032        -0.974902
