19
Iteration:  1702charge 0 multiplicity 1
 C        -2.776642        -1.568285         1.613525
 C        -1.755937        -0.610637         1.178961
 C        -1.978876         0.384109         0.003056
 C        -0.688247         1.207689        -0.124464
 C         0.208140        -0.021045         0.023096
 O         1.446000        -0.043830         0.144172
 C        -0.647588        -1.192441         0.041352
 C        -0.092197        -2.577814         0.107559
 O        -1.800084        -0.746248        -0.937691
 H        -2.302511        -2.426849         2.142433
 H        -3.458399        -1.014123         2.289107
 H        -3.386886        -1.937245         0.779220
 H        -1.292306        -0.154736         2.061213
 H        -3.036296         0.841371        -0.057526
 H        -0.457309         1.698314        -1.111007
 H        -0.503638         1.827857         0.793690
 H         0.224196        -2.650976         1.173862
 H        -0.805178        -3.410962        -0.129664
 H         0.681354        -2.629710        -0.640720
