19
Iteration:  2950charge 0 multiplicity 1
 C        -3.034187        -1.479855         1.582243
 C        -1.820234        -0.599351         1.171740
 C        -1.943772         0.321601        -0.085795
 C        -0.751379         1.177631        -0.018794
 C         0.316146         0.042583         0.044770
 O         1.543602         0.053694         0.035872
 C        -0.719014        -1.237563         0.198529
 C        -0.157443        -2.634585         0.084045
 O        -1.570811        -0.801478        -0.890884
 H        -3.087499        -2.295752         0.870682
 H        -2.658099        -1.943812         2.469703
 H        -4.036085        -1.065374         1.662648
 H        -1.390001        -0.159096         2.061971
 H        -2.845118         0.771129        -0.487674
 H        -0.561283         1.691838        -0.958018
 H        -0.553691         1.851945         0.955892
 H         0.843623        -2.614878         0.544371
 H        -0.709619        -3.439078         0.500087
 H        -0.017159        -2.954552        -0.935552
