19
Iteration:  3580
 C        -2.871047        -1.419539         1.563140
 C        -1.661462        -0.676868         1.225419
 C        -2.018560         0.356316         0.013274
 C        -0.719046         1.162081        -0.171943
 C         0.256464         0.016681         0.109409
 O         1.529162         0.063185         0.202896
 C        -0.686870        -1.240114         0.100910
 C        -0.157422        -2.603801        -0.069362
 O        -1.732918        -0.867301        -0.848313
 H        -3.012986        -2.105174         0.692237
 H        -2.822402        -1.899083         2.534518
 H        -3.792477        -0.865718         1.464086
 H        -1.468417        -0.022651         2.166457
 H        -2.977104         0.762788        -0.108763
 H        -0.459206         1.606113        -1.207764
 H        -0.409457         1.897416         0.603091
 H         0.588175        -2.904746         0.745428
 H        -1.077993        -3.165230         0.051316
 H         0.217196        -2.618355        -1.130091
