19
Iteration:  4488charge 0 multiplicity 1
 C        -2.871824        -1.524574         1.505369
 C        -1.702141        -0.528259         1.231308
 C        -1.978127         0.342329        -0.007768
 C        -0.678795         1.287048        -0.104330
 C         0.284260        -0.029422         0.025856
 O         1.504485         0.072751         0.210622
 C        -0.695772        -1.227549         0.194838
 C        -0.239220        -2.679374        -0.006005
 O        -1.668776        -0.860671        -0.877430
 H        -3.339164        -1.669528         0.472158
 H        -2.547140        -2.532436         1.937617
 H        -3.735739        -1.161841         2.217201
 H        -1.416195         0.028171         2.134567
 H        -2.940910         0.767804        -0.263496
 H        -0.567188         1.554326        -1.156511
 H        -0.668538         1.834771         0.736726
 H         0.863333        -2.710929         0.139839
 H        -0.848799        -3.491211         0.268067
 H        -0.358646        -2.732365        -1.151410
