19
Iteration:  2409
 C        -2.991356        -1.489403         1.435648
 C        -1.674975        -0.665465         1.263060
 C        -1.853566         0.313552         0.002751
 C        -0.794604         1.236989         0.010241
 C         0.309650         0.056257         0.059287
 O         1.457352         0.139845        -0.077464
 C        -0.661721        -1.296811         0.271690
 C        -0.202119        -2.690327         0.124259
 O        -1.619218        -0.818037        -0.922832
 H        -3.145381        -2.353093         0.687189
 H        -3.268129        -1.909828         2.455087
 H        -3.818396        -0.734094         1.290799
 H        -1.269948        -0.160361         2.258906
 H        -2.826306         0.654798        -0.081400
 H        -0.536146         1.887754        -0.919325
 H        -0.774911         1.961869         0.816581
 H         0.709667        -2.861411         0.745072
 H        -1.000079        -3.356409         0.365998
 H         0.178086        -2.894044        -0.895123
