19
Iteration:  2681
 C        -3.015757        -1.414381         1.475392
 C        -1.775728        -0.663162         1.201021
 C        -2.017217         0.240419        -0.046456
 C        -0.694376         1.257689        -0.044569
 C         0.301039         0.065522         0.137689
 O         1.515154         0.102278         0.008428
 C        -0.656325        -1.217912         0.181034
 C        -0.156661        -2.660769         0.096700
 O        -1.562339        -0.890390        -0.871682
 H        -3.698549        -1.221961         0.688040
 H        -2.688748        -2.450182         1.502883
 H        -3.467664        -1.102462         2.399607
 H        -1.343064        -0.015381         1.929616
 H        -3.058848         0.466874        -0.278226
 H        -0.544835         2.050103        -0.819954
 H        -0.854667         1.718454         0.908718
 H         0.661440        -2.914623         0.820772
 H        -0.841095        -3.448102         0.390679
 H         0.007866        -2.802135        -1.014081
