19
Iteration:  4210charge 0 multiplicity 1
 C        -2.833242        -1.562781         1.599318
 C        -1.701163        -0.667038         1.167476
 C        -1.995433         0.305502         0.063301
 C        -0.724119         1.178656        -0.150684
 C         0.346361         0.040918         0.124249
 O         1.505521         0.039133         0.196752
 C        -0.753406        -1.180281         0.097942
 C        -0.254412        -2.621225         0.006959
 O        -1.643182        -0.694012        -0.991749
 H        -3.399123        -2.102384         0.843421
 H        -2.515405        -2.207308         2.452484
 H        -3.696116        -1.051456         2.044953
 H        -1.233795        -0.365737         2.028459
 H        -2.928892         0.799832        -0.109303
 H        -0.504464         1.483365        -1.169706
 H        -0.516624         2.080537         0.337021
 H         0.748528        -2.857308         0.371895
 H        -1.070443        -3.067782         0.610995
 H        -0.462655        -3.191704        -0.866374
