19
Iteration:  3233
 C        -2.967725        -1.609919         1.584264
 C        -1.776218        -0.625206         1.141956
 C        -1.970407         0.341961        -0.069311
 C        -0.729995         1.198395         0.000657
 C         0.288756        -0.048958         0.056078
 O         1.500954        -0.018929         0.035637
 C        -0.758672        -1.153784         0.148039
 C        -0.129575        -2.546130         0.143131
 O        -1.571099        -0.727077        -0.944965
 H        -3.245474        -2.383446         0.795037
 H        -2.517060        -2.128303         2.444578
 H        -3.932597        -1.067692         1.868030
 H        -1.330737         0.077133         1.901936
 H        -2.930710         0.786828        -0.296551
 H        -0.554069         1.811848        -0.882355
 H        -0.655106         1.909283         0.805825
 H         0.956442        -2.436500         0.543904
 H        -0.710415        -3.165481         0.834792
 H        -0.200685        -3.183154        -0.803499
