19
Iteration:  1127
 C        -2.890141        -1.657387         1.484860
 C        -1.775634        -0.678939         1.240801
 C        -1.991338         0.335475         0.029705
 C        -0.687587         1.273327        -0.098065
 C         0.286214         0.061013         0.037743
 O         1.465692        -0.099468         0.014561
 C        -0.710378        -1.199370         0.195190
 C        -0.146648        -2.514220         0.158952
 O        -1.660438        -0.684449        -0.913849
 H        -2.611910        -2.381682         2.240486
 H        -3.775673        -1.090541         1.785958
 H        -3.159685        -2.214573         0.563901
 H        -1.317200        -0.253307         2.179997
 H        -3.013474         0.878419        -0.084435
 H        -0.849143         1.572190        -1.134105
 H        -0.371446         2.027164         0.568932
 H         0.821658        -2.479406         0.739908
 H        -0.728644        -3.353545         0.476337
 H         0.333842        -2.639600        -0.813390
