19
Iteration:  3034
 C        -2.827851        -1.588701         1.480463
 C        -1.649290        -0.646679         1.209020
 C        -1.995973         0.367111         0.003552
 C        -0.668152         1.192915        -0.307514
 C         0.292076        -0.000561         0.079427
 O         1.498927         0.089513         0.240948
 C        -0.710215        -1.200183         0.096496
 C        -0.287949        -2.572986         0.132419
 O        -1.735030        -0.813627        -0.875744
 H        -3.366076        -1.812232         0.528649
 H        -2.510094        -2.601465         1.898858
 H        -3.405568        -1.134398         2.291577
 H        -1.277982        -0.126734         2.135705
 H        -2.962867         0.756893        -0.169044
 H        -0.511256         1.708117        -1.223873
 H        -0.371247         1.908133         0.362719
 H        -0.109177        -2.821220         1.247783
 H        -1.055153        -3.353359        -0.222867
 H         0.742030        -2.585883        -0.290239
