19
Iteration:  4228
 C        -2.808877        -1.533283         1.562703
 C        -1.629529        -0.630516         1.172533
 C        -1.990920         0.350826        -0.002984
 C        -0.716820         1.230238        -0.073694
 C         0.353845         0.035848         0.069512
 O         1.515253         0.064446         0.212577
 C        -0.644630        -1.203101         0.037176
 C        -0.395712        -2.683019         0.063190
 O        -1.695544        -0.790390        -0.930927
 H        -2.946878        -2.244021         0.642702
 H        -2.642383        -2.298246         2.402458
 H        -3.770632        -0.914473         1.734591
 H        -1.319772        -0.023533         2.159431
 H        -3.008843         0.790003        -0.235494
 H        -0.734659         1.625663        -1.096739
 H        -0.822378         1.951929         0.807432
 H         0.714778        -2.746140         0.183182
 H        -0.945301        -3.369967         0.710089
 H        -0.412535        -2.995889        -1.025675
