19
Iteration:  2863
 C        -2.870495        -1.569960         1.520200
 C        -1.830612        -0.570477         1.187375
 C        -2.007981         0.391819        -0.050558
 C        -0.731106         1.204364        -0.077703
 C         0.317107        -0.008616         0.122604
 O         1.487809        -0.117865         0.092471
 C        -0.742338        -1.162751         0.193712
 C        -0.081109        -2.501312         0.128353
 O        -1.658479        -0.840612        -0.998466
 H        -3.578936        -1.662968         0.707463
 H        -2.418635        -2.514468         1.828874
 H        -3.471547        -1.201334         2.365746
 H        -1.516424         0.054716         2.009847
 H        -2.989700         0.821827        -0.215589
 H        -0.363143         1.768536        -0.913279
 H        -0.531129         2.013925         0.732688
 H         0.692007        -2.397665         0.840890
 H        -0.661670        -3.289965         0.427236
 H         0.154971        -2.700931        -0.853496
