19
Iteration:  2700
 C        -2.964239        -1.508976         1.570336
 C        -1.789190        -0.601066         1.169768
 C        -1.945485         0.336392        -0.082780
 C        -0.774848         1.178819         0.021415
 C         0.266178         0.007036         0.045348
 O         1.493120         0.018118         0.069952
 C        -0.661088        -1.223173         0.188521
 C        -0.107236        -2.594886         0.132773
 O        -1.586522        -0.791548        -1.013820
 H        -3.779268        -1.455344         0.846903
 H        -2.791956        -2.551514         1.804317
 H        -3.444325        -1.084766         2.471715
 H        -1.280601        -0.237705         2.061294
 H        -2.886894         0.791683        -0.321760
 H        -0.683440         1.594878        -0.896100
 H        -0.750052         1.929343         0.751102
 H         0.502245        -2.723646         1.063720
 H        -0.867198        -3.315771         0.280699
 H         0.420829        -2.741626        -0.785333
