19
Iteration:  2450
 C        -2.840478        -1.741364         1.573800
 C        -1.840570        -0.614251         1.177003
 C        -1.983451         0.384668        -0.085829
 C        -0.653449         1.216215        -0.078326
 C         0.257458        -0.042595         0.082047
 O         1.475171        -0.059220         0.002420
 C        -0.725765        -1.111250         0.261378
 C        -0.165192        -2.503724         0.209183
 O        -1.628816        -0.702448        -0.997224
 H        -3.426245        -1.963026         0.681876
 H        -2.420707        -2.634687         1.891903
 H        -3.553777        -1.347088         2.276856
 H        -1.400872        -0.025842         1.960719
 H        -2.854387         0.963639        -0.354213
 H        -0.684319         1.746197        -1.051852
 H        -0.529886         1.837077         0.826512
 H         0.558398        -2.500377         1.023304
 H        -0.831302        -3.343174         0.446985
 H         0.247195        -2.637070        -0.735616
