19
Iteration:  1882charge 0 multiplicity 1
 C        -2.979101        -1.570335         1.459843
 C        -1.692455        -0.748907         1.225563
 C        -1.949811         0.307002         0.045353
 C        -0.725538         1.203806        -0.161351
 C         0.357541         0.012136         0.068397
 O         1.501301         0.197647        -0.058141
 C        -0.607391        -1.187609         0.225377
 C        -0.366638        -2.630126         0.114199
 O        -1.582638        -0.765440        -0.805310
 H        -2.894663        -2.657346         1.539876
 H        -3.330105        -1.338324         2.501601
 H        -3.831908        -1.349810         0.777108
 H        -1.302893        -0.435573         2.238757
 H        -2.915384         0.601690        -0.037289
 H        -0.443989         1.546752        -1.092940
 H        -0.719178         2.041913         0.537540
 H         0.738372        -2.622333         0.377844
 H        -0.855215        -3.224678         0.903226
 H        -0.346339        -3.140245        -0.935350
