19
Iteration:  2983charge 0 multiplicity 1
 C        -2.997256        -1.496404         1.706907
 C        -1.799568        -0.659659         1.141201
 C        -1.917854         0.311092        -0.113662
 C        -0.769991         1.145805        -0.047839
 C         0.210957         0.050868         0.078117
 O         1.459350        -0.099307         0.097283
 C        -0.719303        -1.223073         0.180793
 C        -0.094648        -2.482009         0.098518
 O        -1.523777        -0.743116        -1.027155
 H        -3.463605        -2.062192         0.920120
 H        -2.599640        -2.164104         2.443480
 H        -3.672807        -0.845216         2.270203
 H        -1.217391        -0.295285         1.990792
 H        -2.878898         0.748783        -0.387302
 H        -0.532922         1.597841        -1.027106
 H        -0.593893         2.111561         0.629690
 H         0.624583        -2.602562         0.914476
 H        -0.786289        -3.306680         0.166110
 H         0.431948        -2.506741        -0.849988
