19
Iteration:  3264charge 0 multiplicity 1
 C        -2.935462        -1.455645         1.581091
 C        -1.735316        -0.557506         1.163718
 C        -2.032467         0.351215        -0.113616
 C        -0.756343         1.237393         0.021916
 C         0.228135        -0.028333         0.098460
 O         1.507639        -0.062591         0.100876
 C        -0.739087        -1.222569         0.177736
 C        -0.015279        -2.566912         0.009441
 O        -1.630134        -0.853208        -0.925490
 H        -3.122763        -2.248409         0.819635
 H        -2.816379        -2.110093         2.464922
 H        -3.858858        -0.909463         1.878712
 H        -1.366802         0.158509         1.893088
 H        -2.995898         0.715572        -0.286215
 H        -0.468512         1.700592        -0.962217
 H        -0.688063         1.803833         0.997116
 H         0.921625        -2.592679         0.543092
 H        -0.693961        -3.285191         0.371870
 H         0.108845        -2.715532        -1.065714
