19
Iteration:  2643charge 0 multiplicity 1
 C        -3.003337        -1.580582         1.463466
 C        -1.826465        -0.628498         1.220271
 C        -2.002421         0.334947         0.039293
 C        -0.713942         1.252477        -0.153914
 C         0.331052        -0.045922         0.090515
 O         1.567649         0.094803         0.004562
 C        -0.712594        -1.231949         0.229618
 C        -0.155306        -2.619892         0.157402
 O        -1.568301        -0.735021        -0.887908
 H        -3.481062        -1.711401         0.437269
 H        -2.756465        -2.646592         1.713746
 H        -3.782776        -1.221454         2.191612
 H        -1.465475        -0.374692         2.264076
 H        -3.079824         0.622001        -0.102240
 H        -0.516404         1.565123        -1.179323
 H        -0.535231         2.103781         0.580764
 H         0.851305        -2.629243         0.504195
 H        -0.899201        -3.235818         0.724650
 H        -0.091524        -3.027413        -0.833971
