19
Iteration:  2910
 C        -2.886023        -1.589320         1.336552
 C        -1.703319        -0.613148         1.215429
 C        -1.945316         0.345033         0.037738
 C        -0.731087         1.200217        -0.091017
 C         0.284977         0.006544         0.052954
 O         1.529300         0.036726         0.054737
 C        -0.676279        -1.205547         0.150340
 C        -0.254101        -2.640031         0.248019
 O        -1.648527        -0.735576        -0.859729
 H        -3.074165        -2.107533         0.370300
 H        -2.693595        -2.269800         2.186926
 H        -3.827274        -0.988901         1.583983
 H        -1.289616        -0.181910         2.158814
 H        -2.928464         0.896020        -0.187743
 H        -0.928923         1.610842        -1.128687
 H        -0.826640         2.092310         0.416609
 H         0.767149        -2.556089         0.627441
 H        -0.799905        -3.294018         0.949117
 H        -0.320977        -3.102043        -0.768258
