19
Iteration:  4836charge 0 multiplicity 1
 C        -2.778029        -1.502906         1.615746
 C        -1.670536        -0.637736         1.181636
 C        -1.956404         0.289776        -0.045754
 C        -0.712257         1.142120        -0.119716
 C         0.316646         0.006783        -0.023500
 O         1.459343         0.005723         0.340177
 C        -0.734801        -1.169771         0.015259
 C        -0.267020        -2.596657         0.096682
 O        -1.739836        -0.736401        -1.052804
 H        -3.357966        -1.927266         0.803954
 H        -2.234093        -2.335028         2.124645
 H        -3.397756        -1.104241         2.437063
 H        -1.249855        -0.126102         2.070343
 H        -2.850874         0.865079        -0.100654
 H        -0.773672         1.932547        -0.922725
 H        -0.476838         1.888130         0.678603
 H         0.209799        -2.754354         1.163303
 H        -1.111516        -3.283177        -0.144712
 H         0.584325        -2.883477        -0.630759
