19
Iteration:  1812
 C        -2.893763        -1.605297         1.633771
 C        -1.754064        -0.598735         1.172432
 C        -1.978092         0.300175         0.042702
 C        -0.742180         1.230458        -0.057103
 C         0.249720         0.001051        -0.017242
 O         1.475873        -0.169768         0.037083
 C        -0.759071        -1.182277         0.152798
 C        -0.029749        -2.451476         0.129495
 O        -1.678545        -0.692571        -1.046344
 H        -2.567031        -2.442071         2.339741
 H        -3.478078        -0.999600         2.359722
 H        -3.665478        -1.902408         0.907706
 H        -1.216280        -0.336912         2.056270
 H        -3.082905         0.678486         0.070293
 H        -0.758022         1.965256        -0.985209
 H        -0.482239         1.863970         0.816261
 H         0.756435        -2.430731         0.932480
 H        -0.715237        -3.305784         0.435547
 H         0.563925        -2.662057        -0.754938
