19
Iteration:  1678charge 0 multiplicity 1
 C        -2.794941        -1.567835         1.605384
 C        -1.674395        -0.605103         1.212308
 C        -2.011115         0.361327        -0.048630
 C        -0.816783         1.303100        -0.084490
 C         0.259682        -0.045882         0.024443
 O         1.493020        -0.192438         0.124590
 C        -0.761889        -1.176798         0.096154
 C        -0.086781        -2.440455         0.116517
 O        -1.692146        -0.799434        -0.940742
 H        -2.458518        -2.579317         1.734452
 H        -3.296751        -1.246595         2.521597
 H        -3.554008        -1.546409         0.808105
 H        -1.210086        -0.042409         1.964518
 H        -3.069641         0.733217        -0.396956
 H        -0.772363         1.889629        -0.995793
 H        -0.696289         1.914991         0.894314
 H         0.620492        -2.510003         0.912346
 H        -0.784508        -3.228762         0.153904
 H         0.270479        -2.502246        -0.873241
