19
Iteration:  1689
 C        -2.806122        -1.547048         1.609572
 C        -1.682533        -0.545529         1.190246
 C        -2.020413         0.339991         0.013343
 C        -0.714101         1.249120        -0.033800
 C         0.292808         0.076998        -0.028936
 O         1.432487        -0.158764         0.146163
 C        -0.816607        -1.149632         0.077132
 C        -0.049666        -2.566968         0.094671
 O        -1.742569        -0.830286        -0.985193
 H        -2.305305        -2.472977         1.847746
 H        -3.432362        -1.320351         2.467353
 H        -3.449438        -1.854772         0.780451
 H        -1.171030        -0.061414         1.965313
 H        -2.998042         0.974114        -0.221106
 H        -0.769320         1.817638        -0.958199
 H        -0.600423         2.140548         0.715054
 H         0.500309        -2.665421         1.004362
 H        -0.742380        -3.344464         0.126557
 H         0.710512        -2.716127        -0.647582
