19
Iteration:  4114charge 0 multiplicity 1
 C        -2.928266        -1.573039         1.566485
 C        -1.750963        -0.710001         1.209134
 C        -1.902574         0.348870         0.053041
 C        -0.660986         1.154509        -0.108022
 C         0.299367        -0.020373         0.025859
 O         1.478602         0.124787         0.050161
 C        -0.705004        -1.218357         0.162149
 C        -0.229605        -2.652509         0.082690
 O        -1.657541        -0.679265        -0.919138
 H        -3.413152        -2.188555         0.773015
 H        -2.492584        -2.307259         2.324171
 H        -3.710232        -0.972068         2.057703
 H        -1.295775        -0.162729         2.208085
 H        -2.813140         0.901371        -0.080621
 H        -0.709106         1.610992        -1.211998
 H        -0.609684         2.090815         0.500584
 H         0.199138        -2.986413         1.062936
 H        -1.113944        -3.254423        -0.291101
 H         0.589237        -2.843393        -0.610979
