19
Iteration:  2585
 C        -2.801515        -1.632070         1.616113
 C        -1.821136        -0.562895         1.095990
 C        -1.942958         0.370912        -0.089941
 C        -0.685653         1.208665        -0.055079
 C         0.244416         0.015682         0.074984
 O         1.494460        -0.063264         0.160231
 C        -0.763159        -1.175678         0.093648
 C        -0.128660        -2.592266         0.119862
 O        -1.734473        -0.734431        -0.949250
 H        -2.745139        -2.394885         0.821531
 H        -2.475226        -1.921455         2.656966
 H        -3.791595        -1.145145         1.500432
 H        -1.348110        -0.169260         2.085664
 H        -2.808933         1.030075        -0.299137
 H        -0.478490         1.917334        -0.999931
 H        -0.763826         1.754681         0.960864
 H         0.614488        -2.627728         0.910703
 H        -0.644746        -3.542211         0.356034
 H         0.287686        -2.765944        -0.912802
