19
Iteration:  4924charge 0 multiplicity 1
 C        -3.002153        -1.510946         1.476518
 C        -1.719040        -0.652880         1.185936
 C        -1.990132         0.372283         0.020071
 C        -0.688192         1.216111         0.063889
 C         0.271926         0.003385         0.136755
 O         1.445166        -0.055040        -0.087151
 C        -0.689958        -1.224439         0.207279
 C        -0.085940        -2.572280         0.142318
 O        -1.607300        -0.745500        -0.968519
 H        -3.238066        -2.039421         0.509211
 H        -2.915410        -2.241409         2.293620
 H        -3.929734        -0.935035         1.778506
 H        -1.351585        -0.137720         2.103613
 H        -2.976360         0.749597        -0.287232
 H        -0.561979         1.638442        -0.988821
 H        -0.509342         1.856425         0.929011
 H         0.863757        -2.605293         0.761607
 H        -0.676003        -3.411305         0.643069
 H        -0.037889        -2.680354        -0.924229
