19
Iteration:  2925charge 0 multiplicity 1
 C        -2.890084        -1.489130         1.373911
 C        -1.689186        -0.613452         1.197932
 C        -2.016902         0.301896         0.011881
 C        -0.707781         1.185738        -0.074546
 C         0.254730         0.055468         0.076245
 O         1.509435         0.066454         0.040505
 C        -0.654843        -1.161907         0.200863
 C        -0.241023        -2.576476         0.171222
 O        -1.648189        -0.866482        -0.879427
 H        -2.943054        -2.192385         0.507765
 H        -2.841028        -2.135451         2.292055
 H        -3.843845        -0.938199         1.361612
 H        -1.296824        -0.233236         2.171912
 H        -3.022270         0.600975        -0.131620
 H        -0.285164         1.673642        -0.945962
 H        -0.395459         1.666624         0.904235
 H         0.825007        -2.869450         0.471150
 H        -1.054221        -3.123403         0.861783
 H        -0.351183        -3.108216        -0.835096
