19
Iteration:  3846charge 0 multiplicity 1
 C        -2.956070        -1.489056         1.562651
 C        -1.720498        -0.652661         1.254495
 C        -1.970715         0.301276         0.051125
 C        -0.688600         1.204117        -0.181720
 C         0.284510         0.027375        -0.032266
 O         1.495650         0.071735         0.196978
 C        -0.621671        -1.216022         0.149913
 C        -0.149398        -2.588254        -0.014491
 O        -1.712566        -0.814142        -0.888503
 H        -3.509157        -1.415504         0.667727
 H        -2.754947        -2.516363         1.739508
 H        -3.381029        -1.096128         2.478450
 H        -1.197015        -0.356573         2.055574
 H        -3.039950         0.662903        -0.007081
 H        -0.583456         1.641720        -1.162664
 H        -0.564242         1.963120         0.652536
 H         0.218399        -3.025552         0.896414
 H        -1.046037        -3.280652        -0.098689
 H         0.428655        -2.776030        -0.904104
