19
Iteration:  4741charge 0 multiplicity 1
 C        -2.907631        -1.440977         1.432372
 C        -1.623705        -0.642782         1.179667
 C        -2.039693         0.355402         0.029608
 C        -0.739631         1.159210        -0.009702
 C         0.311086        -0.035246         0.123795
 O         1.509150         0.050939         0.117417
 C        -0.681650        -1.237687         0.124996
 C        -0.112828        -2.635498         0.043155
 O        -1.766249        -0.801571        -0.914567
 H        -3.228590        -2.001610         0.503572
 H        -2.920793        -1.993916         2.417259
 H        -3.612704        -0.600126         1.567449
 H        -1.212299        -0.274489         2.196993
 H        -3.042061         0.777748        -0.310040
 H        -0.635824         1.811466        -0.925513
 H        -0.479441         1.991333         0.700856
 H         0.749050        -2.650215         0.710491
 H        -0.893302        -3.409248         0.444997
 H         0.146704        -2.952623        -0.910717
