19
Iteration:  1594charge 0 multiplicity 1
 C        -2.873961        -1.531490         1.492585
 C        -1.601095        -0.636964         1.251366
 C        -1.989027         0.345955         0.066266
 C        -0.790518         1.192740        -0.074856
 C         0.284597         0.066487         0.074624
 O         1.475296         0.044839         0.011696
 C        -0.753059        -1.244824         0.119231
 C        -0.244414        -2.640722         0.055734
 O        -1.604802        -0.786265        -0.887273
 H        -2.763060        -2.146857         2.432932
 H        -3.755196        -0.845766         1.533670
 H        -2.902330        -2.290714         0.682039
 H        -1.232197        -0.065565         2.201904
 H        -2.969346         0.777457        -0.140119
 H        -0.532340         1.938643        -0.869879
 H        -0.635439         1.819128         0.783823
 H         0.845712        -2.712104         0.455573
 H        -0.977599        -3.151207         0.784798
 H        -0.166238        -3.113538        -0.952067
