19
Iteration:  2112
 C        -2.977449        -1.533193         1.483108
 C        -1.685478        -0.663476         1.257731
 C        -1.920527         0.282765         0.179580
 C        -0.752772         1.232553         0.040695
 C         0.301574         0.000120         0.055983
 O         1.491813        -0.004425        -0.115675
 C        -0.663031        -1.151328         0.119078
 C        -0.133595        -2.599406         0.070770
 O        -1.706059        -0.737514        -0.913020
 H        -3.858697        -0.799711         1.417626
 H        -3.235184        -2.319077         0.695380
 H        -2.919199        -2.104318         2.441272
 H        -1.213072        -0.245706         2.116136
 H        -2.760849         0.820845         0.089189
 H        -0.907504         1.724141        -0.874423
 H        -0.618257         1.897551         0.924804
 H         0.905391        -2.750694         0.458576
 H        -0.795213        -3.449209         0.466140
 H         0.036679        -2.757013        -1.036858
