19
Iteration:  4042charge 0 multiplicity 1
 C        -2.960808        -1.620082         1.565997
 C        -1.845973        -0.659577         1.208417
 C        -1.897759         0.378040         0.050961
 C        -0.687467         1.177259         0.017415
 C         0.331808         0.054958         0.091003
 O         1.493167        -0.075420        -0.042277
 C        -0.752441        -1.214994         0.119690
 C        -0.137527        -2.509704         0.167032
 O        -1.666688        -0.692060        -1.001013
 H        -3.413244        -2.154144         0.707041
 H        -2.428488        -2.418935         2.047454
 H        -3.692127        -1.073243         2.188662
 H        -1.294997        -0.324532         2.078973
 H        -2.870497         0.758569        -0.303072
 H        -0.629783         1.497796        -0.964162
 H        -0.528546         2.099622         0.532640
 H         0.557009        -2.454669         0.972093
 H        -0.901232        -3.291152         0.135660
 H         0.606243        -2.668274        -0.627450
