19
Iteration:  1818
 C        -2.900813        -1.588276         1.629682
 C        -1.758289        -0.582291         1.209447
 C        -1.977085         0.320408         0.074972
 C        -0.729684         1.223789        -0.031256
 C         0.208910         0.004486        -0.007362
 O         1.438075        -0.176910         0.021390
 C        -0.729095        -1.168446         0.100558
 C        -0.046865        -2.427360         0.125952
 O        -1.646699        -0.754857        -1.045071
 H        -2.433347        -2.501027         1.975156
 H        -3.493824        -1.099653         2.410231
 H        -3.560720        -1.748973         0.765427
 H        -1.220693        -0.245654         2.146794
 H        -2.964917         0.739814         0.031968
 H        -0.628882         1.677373        -0.953618
 H        -0.514240         1.859236         0.850729
 H         0.696194        -2.223444         0.892783
 H        -0.595497        -3.233270         0.546322
 H         0.471974        -2.747698        -0.796920
