19
Iteration:  4029
 C        -3.036028        -1.620585         1.553143
 C        -1.756004        -0.700014         1.151654
 C        -2.046608         0.341598         0.030359
 C        -0.639273         1.217559        -0.064656
 C         0.312840         0.021253         0.089198
 O         1.519563        -0.106020        -0.023428
 C        -0.732905        -1.108271         0.128632
 C        -0.035373        -2.495303         0.123077
 O        -1.665267        -0.712250        -0.915079
 H        -3.719221        -1.851190         0.724690
 H        -2.714922        -2.487845         2.126200
 H        -3.680124        -1.162871         2.377022
 H        -1.413377        -0.295778         2.007590
 H        -2.884518         1.000393        -0.012129
 H        -0.558558         1.692559        -1.036338
 H        -0.553050         1.866711         0.777066
 H         0.552025        -2.518013         1.021392
 H        -0.735695        -3.321667         0.395900
 H         0.469853        -2.744890        -0.785084
