19
Iteration:   798
 C        -3.088175        -1.618741         1.651402
 C        -1.796547        -0.740443         1.189266
 C        -1.932816         0.298758         0.000056
 C        -0.688411         1.222261         0.009453
 C         0.305206         0.093280         0.007849
 O         1.511920         0.101031        -0.067109
 C        -0.707316        -1.208701         0.133396
 C        -0.161700        -2.536734         0.192952
 O        -1.513499        -0.800109        -0.992386
 H        -2.780364        -2.082406         2.588722
 H        -3.973758        -1.065595         1.864452
 H        -3.461648        -2.405132         1.049277
 H        -1.449729        -0.259506         2.090890
 H        -2.815714         0.777654        -0.389765
 H        -0.712514         1.955011        -0.939989
 H        -0.319403         1.981134         0.658172
 H         0.135292        -2.903628         1.161678
 H        -1.107409        -3.108742        -0.066162
 H         0.585383        -2.856966        -0.561569
