19
Iteration:  3734
 C        -2.980896        -1.533932         1.430649
 C        -1.743849        -0.560462         1.238128
 C        -1.946101         0.366633         0.056850
 C        -0.684809         1.214545        -0.009098
 C         0.249764        -0.002653         0.024155
 O         1.488941         0.006501        -0.029901
 C        -0.695671        -1.217415         0.211854
 C        -0.089335        -2.595437         0.083349
 O        -1.676550        -0.856187        -0.831133
 H        -3.005184        -2.288142         0.624619
 H        -3.108648        -2.131684         2.375066
 H        -3.944441        -0.920211         1.322956
 H        -1.218337        -0.395260         2.160765
 H        -2.923635         0.765743        -0.185690
 H        -0.476705         1.791720        -0.980693
 H        -0.410533         1.908705         0.779675
 H         0.872161        -2.527253         0.754583
 H        -0.932601        -3.288862         0.267364
 H         0.069626        -2.417905        -1.043791
