19
Iteration:  3076charge 0 multiplicity 1
 C        -2.816854        -1.596641         1.585949
 C        -1.687645        -0.545826         1.160317
 C        -1.998269         0.340581        -0.074807
 C        -0.721251         1.168979        -0.180899
 C         0.290749         0.007036         0.082088
 O         1.512624         0.084371         0.226533
 C        -0.718669        -1.139429         0.162479
 C        -0.300791        -2.621945         0.060335
 O        -1.658412        -0.825397        -0.924019
 H        -3.121711        -2.149715         0.660492
 H        -2.600178        -2.327510         2.440999
 H        -3.582703        -0.872888         1.901972
 H        -1.157081        -0.199436         2.066701
 H        -2.984060         0.768009        -0.168920
 H        -0.541289         1.422919        -1.304841
 H        -0.579976         2.072947         0.528885
 H        -0.008092        -3.035224         1.043397
 H        -1.036040        -3.407534        -0.310294
 H         0.605806        -2.802137        -0.514684
