19
Iteration:  4614
 C        -2.993796        -1.520382         1.491379
 C        -1.732649        -0.663560         1.265932
 C        -1.904306         0.302344         0.070196
 C        -0.665557         1.161817        -0.158781
 C         0.265021        -0.027566         0.095721
 O         1.506346         0.097400         0.056742
 C        -0.704703        -1.244021         0.153986
 C        -0.188837        -2.587197         0.056029
 O        -1.644348        -0.727513        -0.905651
 H        -3.627727        -1.668505         0.635989
 H        -2.856078        -2.586232         1.774178
 H        -3.542986        -0.913386         2.196156
 H        -1.297852        -0.415229         2.221119
 H        -2.921633         0.809736         0.080268
 H        -0.659558         1.480398        -1.257735
 H        -0.413413         2.078514         0.543983
 H         0.025859        -2.897921         1.090904
 H        -0.950752        -3.452509        -0.204645
 H         0.782730        -2.446218        -0.465898
