19
Iteration:  1887
 C        -2.975827        -1.535588         1.472599
 C        -1.637914        -0.763266         1.212700
 C        -1.939575         0.307029         0.063854
 C        -0.701730         1.221558        -0.137556
 C         0.308221         0.059922         0.118871
 O         1.489382         0.182646        -0.061292
 C        -0.627773        -1.248604         0.243423
 C        -0.323944        -2.645842         0.134243
 O        -1.604185        -0.769645        -0.888567
 H        -2.723213        -2.614813         1.544530
 H        -3.335773        -1.281869         2.452595
 H        -3.796662        -1.405162         0.787588
 H        -1.405418        -0.314873         2.192055
 H        -3.058547         0.784623        -0.016713
 H        -0.613384         1.582622        -1.268121
 H        -0.681926         2.052495         0.605353
 H         0.724627        -2.811009         0.351943
 H        -0.846218        -3.342627         0.787790
 H        -0.406352        -3.032601        -0.813107
