19
Iteration:  1612
 C        -2.883749        -1.461744         1.499483
 C        -1.708126        -0.661959         1.199116
 C        -1.948545         0.233676         0.075962
 C        -0.765844         1.196847        -0.011721
 C         0.338853         0.041038         0.024757
 O         1.535958         0.155311         0.022787
 C        -0.601289        -1.189627         0.148507
 C        -0.276002        -2.675190         0.096211
 O        -1.684378        -0.827542        -0.894655
 H        -2.810908        -2.281311         2.166714
 H        -3.701719        -0.820211         1.792155
 H        -3.308953        -1.927961         0.617166
 H        -1.307265        -0.278824         2.071442
 H        -3.012845         0.679135        -0.115507
 H        -0.822650         1.681224        -0.961217
 H        -0.542624         2.046912         0.742568
 H         0.692411        -3.057305         0.312906
 H        -0.953063        -3.288399         0.601612
 H        -0.483174        -2.830169        -0.938455
