19
Iteration:  1347
 C        -2.913592        -1.486405         1.496231
 C        -1.665937        -0.574263         1.255069
 C        -2.025472         0.257117        -0.027541
 C        -0.695068         1.142633        -0.042557
 C         0.318618         0.011431         0.064608
 O         1.531800         0.242290         0.073618
 C        -0.659261        -1.190021         0.231944
 C        -0.288251        -2.685543        -0.023204
 O        -1.688017        -0.877842        -0.880200
 H        -2.654427        -2.435532         1.980033
 H        -3.434346        -1.054817         2.345742
 H        -3.446060        -1.676354         0.565660
 H        -1.066028        -0.300687         2.150464
 H        -3.048707         0.650423        -0.422990
 H        -0.417623         1.734719        -0.986860
 H        -0.493541         1.775609         0.847053
 H         0.663146        -2.985873         0.365259
 H        -0.949360        -3.452787         0.438213
 H        -0.276049        -2.817394        -1.102850
