19
Iteration:   618charge 0 multiplicity 1
 C        -2.813811        -1.568308         1.816946
 C        -1.809323        -0.600906         1.133572
 C        -2.027914         0.287899        -0.133275
 C        -0.780987         1.127571        -0.120964
 C         0.228479        -0.059384         0.061243
 O         1.435675        -0.080805         0.197517
 C        -0.723812        -1.087305         0.113702
 C        -0.112309        -2.454198         0.071139
 O        -1.526231        -0.762486        -1.054003
 H        -2.295801        -2.104309         2.605378
 H        -3.643019        -0.955703         2.236047
 H        -3.184356        -2.271190         1.081552
 H        -1.434659         0.038949         1.934057
 H        -3.073109         0.687682        -0.468388
 H        -0.561392         1.438550        -1.139758
 H        -0.654044         2.017440         0.670501
 H         0.177963        -2.691723         1.113363
 H        -0.914958        -3.122860        -0.307670
 H         0.737408        -2.332753        -0.607979
