19
Iteration:  1543charge 0 multiplicity 1
 C        -2.867402        -1.624469         1.616482
 C        -1.805819        -0.609476         1.212846
 C        -2.002645         0.330759        -0.003053
 C        -0.667662         1.272302        -0.019510
 C         0.274943        -0.008262        -0.010568
 O         1.448592        -0.160672         0.021219
 C        -0.764502        -1.197930         0.153606
 C        -0.103874        -2.446520         0.055994
 O        -1.659219        -0.727302        -0.904883
 H        -2.346864        -2.288829         2.367969
 H        -3.816129        -1.201041         1.997913
 H        -3.181648        -2.326306         0.819021
 H        -1.293341        -0.179713         2.078973
 H        -2.928512         0.772983        -0.271799
 H        -0.489514         1.733895        -1.082318
 H        -0.634147         2.236514         0.553331
 H         0.561194        -2.323368         0.906455
 H        -0.623129        -3.400874         0.227581
 H         0.588065        -2.456385        -0.804507
