19
Iteration:  4297charge 0 multiplicity 1
 C        -2.981917        -1.587790         1.573952
 C        -1.773493        -0.667922         1.203898
 C        -1.934656         0.352589         0.051395
 C        -0.731215         1.180041        -0.111792
 C         0.209962         0.006626        -0.001157
 O         1.475366        -0.129118         0.095574
 C        -0.715562        -1.155166         0.114956
 C        -0.061240        -2.488218         0.087160
 O        -1.613483        -0.693456        -0.902691
 H        -3.686366        -1.830759         0.691798
 H        -2.676571        -2.538911         2.150513
 H        -3.466158        -0.844844         2.325618
 H        -1.226153        -0.171256         2.057205
 H        -2.841954         0.882922        -0.183443
 H        -0.614212         1.508342        -1.159641
 H        -0.468325         1.895393         0.612647
 H         0.643493        -2.595957         0.919229
 H        -0.878076        -3.293101         0.026582
 H         0.508952        -2.574497        -0.821661
