19
Iteration:   363charge 0 multiplicity 1
 C        -2.726120        -1.516833         1.796920
 C        -1.770266        -0.664136         1.048414
 C        -1.987117         0.253283        -0.177205
 C        -0.744509         1.225801        -0.094152
 C         0.215320         0.061924         0.022082
 O         1.371785        -0.080846         0.339952
 C        -0.761527        -1.167958         0.045805
 C        -0.055403        -2.508602         0.086842
 O        -1.655577        -0.805677        -1.099884
 H        -2.189086        -2.147319         2.508756
 H        -3.251924        -0.846114         2.462879
 H        -3.504300        -2.155738         1.387754
 H        -1.239399        -0.058601         1.757604
 H        -2.899300         0.899886        -0.351102
 H        -0.744373         1.960134        -0.941004
 H        -0.762702         1.934454         0.740031
 H         0.557887        -2.519408         1.027973
 H        -0.809325        -3.248734         0.269757
 H         0.560809        -2.882348        -0.732222
