19
Iteration:  3878
 C        -2.845962        -1.546693         1.672612
 C        -1.735127        -0.636722         1.163457
 C        -2.001084         0.383987         0.043083
 C        -0.659463         1.205433        -0.191834
 C         0.232285        -0.065674         0.062138
 O         1.477171        -0.007921         0.236830
 C        -0.766985        -1.175945         0.137738
 C        -0.091420        -2.562921        -0.016565
 O        -1.724125        -0.762319        -0.973772
 H        -3.446119        -1.690609         0.780933
 H        -2.507707        -2.505155         2.030667
 H        -3.505330        -0.928950         2.296722
 H        -1.090877        -0.501415         1.947150
 H        -3.043633         0.786953        -0.070936
 H        -0.456307         1.430900        -1.223611
 H        -0.604066         2.122345         0.420296
 H         0.454373        -2.768279         0.901071
 H        -0.911770        -3.310942        -0.252063
 H         0.699405        -2.567171        -0.755932
