19
Iteration:  2393charge 0 multiplicity 1
 C        -3.055670        -1.412404         1.454269
 C        -1.717120        -0.741615         1.185768
 C        -2.017961         0.230072         0.142831
 C        -0.690102         1.135111        -0.060351
 C         0.281302         0.026211         0.086759
 O         1.463173         0.164994        -0.086789
 C        -0.639322        -1.190553         0.202137
 C        -0.165065        -2.647687         0.108570
 O        -1.519567        -0.772612        -0.855961
 H        -3.109410        -2.337941         0.950294
 H        -3.169516        -1.624595         2.502240
 H        -3.869398        -0.823095         1.091484
 H        -1.361224        -0.509676         2.128022
 H        -3.030111         0.731574        -0.093962
 H        -0.760161         1.536548        -1.022797
 H        -0.399481         1.962767         0.683576
 H         0.710928        -2.876738         0.703420
 H        -1.057112        -3.291339         0.332615
 H         0.231362        -2.870211        -0.905035
