19
Iteration:  3263charge 0 multiplicity 1
 C        -2.935589        -1.459287         1.580170
 C        -1.732437        -0.559519         1.165155
 C        -2.039141         0.350520        -0.111181
 C        -0.746288         1.237649         0.026939
 C         0.227207        -0.030229         0.104835
 O         1.503698        -0.061713         0.097296
 C        -0.743701        -1.209720         0.186843
 C        -0.009293        -2.568195         0.012591
 O        -1.633214        -0.858832        -0.936919
 H        -3.117673        -2.245294         0.833932
 H        -2.803555        -2.105556         2.468770
 H        -3.835769        -0.911894         1.859923
 H        -1.347261         0.151815         1.846792
 H        -2.992538         0.739431        -0.328975
 H        -0.463894         1.727917        -0.971497
 H        -0.672972         1.813077         1.022582
 H         0.900597        -2.588079         0.517238
 H        -0.690612        -3.296348         0.359333
 H         0.076004        -2.735179        -1.032616
