19
Iteration:  4452charge 0 multiplicity 1
 C        -3.010750        -1.552899         1.521281
 C        -1.667221        -0.714911         1.219573
 C        -2.018748         0.323266         0.044717
 C        -0.660319         1.195787        -0.088019
 C         0.294277        -0.051234         0.120964
 O         1.518506        -0.020339         0.088342
 C        -0.757879        -1.199881         0.144725
 C        -0.091496        -2.510600         0.084115
 O        -1.690911        -0.702214        -0.963668
 H        -3.641013        -1.721320         0.635965
 H        -2.949246        -2.562476         1.988801
 H        -3.561574        -0.859131         2.203983
 H        -1.103806        -0.229700         2.096710
 H        -3.009057         0.838703        -0.085139
 H        -0.513112         1.558651        -1.172932
 H        -0.598441         2.188958         0.222647
 H         0.819674        -2.566083         0.660887
 H        -0.660937        -3.302664         0.594549
 H         0.150969        -2.700357        -0.980444
