19
Iteration:   772charge 0 multiplicity 1
 C        -2.858978        -1.497595         1.575644
 C        -1.722251        -0.577091         1.122090
 C        -2.016348         0.309259        -0.065968
 C        -0.830409         1.147791         0.034747
 C         0.245676        -0.023710         0.165744
 O         1.457977        -0.020205        -0.031435
 C        -0.763190        -1.244579         0.152160
 C        -0.058923        -2.591478         0.174535
 O        -1.565343        -0.710579        -1.024942
 H        -2.637523        -1.720614         2.616766
 H        -3.889527        -1.065401         1.508764
 H        -3.071662        -2.444462         1.015449
 H        -1.336215        -0.038544         2.002191
 H        -2.992272         0.750453        -0.289473
 H        -0.613465         1.920436        -0.627200
 H        -0.801754         1.759429         0.971273
 H         0.681210        -2.656157         1.004472
 H        -0.776117        -3.372779         0.284513
 H         0.438106        -2.751192        -0.777618
