19
Iteration:  3750charge 0 multiplicity 1
 C        -2.891488        -1.530292         1.430100
 C        -1.769754        -0.634149         1.216777
 C        -1.974503         0.341269         0.026129
 C        -0.698766         1.133633        -0.002284
 C         0.251995        -0.026765         0.075737
 O         1.522722        -0.032624        -0.055517
 C        -0.765283        -1.144943         0.206069
 C        -0.081604        -2.567325         0.091102
 O        -1.693068        -0.745509        -0.876959
 H        -2.759208        -2.375993         0.752924
 H        -2.865063        -1.831732         2.467040
 H        -3.813334        -1.015640         1.337442
 H        -1.654659         0.066413         2.170203
 H        -2.919564         0.938521        -0.077017
 H        -0.482539         1.769176        -0.866149
 H        -0.658398         1.732182         0.976154
 H         0.722922        -2.494171         0.775238
 H        -0.672170        -3.440855         0.505102
 H         0.208535        -2.797015        -0.924333
