19
Iteration:  1771charge 0 multiplicity 1
 C        -2.820023        -1.501261         1.624225
 C        -1.680582        -0.600554         1.248149
 C        -1.960109         0.244592         0.023047
 C        -0.672528         1.182297        -0.095261
 C         0.290958        -0.020559         0.089439
 O         1.481518         0.147110         0.059457
 C        -0.751325        -1.220126         0.180279
 C        -0.303294        -2.594012        -0.004536
 O        -1.653328        -0.845503        -0.954170
 H        -2.534035        -1.860999         2.642527
 H        -3.761453        -0.904699         1.573437
 H        -2.865226        -2.360178         0.903514
 H        -1.366680         0.118409         2.073939
 H        -2.915664         0.646989        -0.099942
 H        -0.721720         1.703741        -1.072777
 H        -0.571584         1.785709         0.768959
 H        -0.002718        -3.240095         0.881126
 H        -1.056389        -3.196816        -0.611449
 H         0.537954        -2.441092        -0.800898
