19
Iteration:  2274charge 0 multiplicity 1
 C        -2.794532        -1.500990         1.592581
 C        -1.671145        -0.611046         1.226820
 C        -1.999682         0.295836         0.029981
 C        -0.708551         1.164282        -0.187026
 C         0.323207         0.024914         0.072351
 O         1.501121         0.174815         0.247317
 C        -0.698395        -1.242527         0.186161
 C        -0.292537        -2.708979        -0.103090
 O        -1.705713        -0.811447        -0.924423
 H        -2.594909        -2.490456         1.919366
 H        -3.253691        -0.987963         2.450792
 H        -3.488786        -1.452696         0.778018
 H        -1.042695        -0.129091         2.032563
 H        -3.080942         0.691283         0.000955
 H        -0.655533         1.430740        -1.205749
 H        -0.589235         2.029656         0.554276
 H         0.191173        -3.288208         0.644355
 H        -1.230845        -3.110183        -0.462975
 H         0.349752        -2.601594        -0.957311
