19
Iteration:   490
 C        -2.932437        -1.554647         1.594791
 C        -1.852298        -0.636075         1.076554
 C        -1.995814         0.331946        -0.110752
 C        -0.755363         1.309714         0.096431
 C         0.214109         0.026343         0.082882
 O         1.439316        -0.122723        -0.066415
 C        -0.665233        -1.170533         0.146591
 C         0.029569        -2.540253         0.318170
 O        -1.595475        -0.794484        -1.067095
 H        -2.534343        -2.526503         2.001710
 H        -3.596087        -1.179131         2.450005
 H        -3.714942        -1.880754         0.845674
 H        -1.434333        -0.076665         1.947042
 H        -2.930264         0.796295        -0.425925
 H        -0.443077         2.118797        -0.628531
 H        -0.826456         1.780893         1.029507
 H         0.900118        -2.412603         0.994296
 H        -0.721453        -3.236933         0.736629
 H         0.516593        -2.949353        -0.561646
