19
Iteration:  4943charge 0 multiplicity 1
 C        -3.007038        -1.589431         1.469428
 C        -1.769688        -0.640791         1.165658
 C        -1.958073         0.339285         0.007650
 C        -0.687713         1.212392         0.085327
 C         0.259951        -0.039753        -0.037316
 O         1.442359        -0.043483        -0.084925
 C        -0.747904        -1.195391         0.153050
 C        -0.115928        -2.578075         0.249755
 O        -1.516780        -0.661337        -0.955745
 H        -3.609824        -1.822882         0.542539
 H        -2.596637        -2.514507         2.076020
 H        -3.649470        -0.817986         2.051384
 H        -1.444948        -0.278139         2.223346
 H        -2.831513         0.961839         0.055215
 H        -0.785043         1.787000        -0.808447
 H        -0.601774         1.558835         1.079671
 H         0.795491        -2.392895         0.814504
 H        -0.596398        -3.178515         0.895571
 H         0.059727        -3.162586        -0.690669
