19
Iteration:  1863
 C        -2.980148        -1.596704         1.469426
 C        -1.772476        -0.610690         1.308070
 C        -1.992145         0.308528         0.102737
 C        -0.689024         1.151630        -0.102757
 C         0.388900         0.086347        -0.033652
 O         1.562718         0.137265        -0.040741
 C        -0.667342        -1.200627         0.224447
 C        -0.227181        -2.610564         0.132857
 O        -1.644112        -0.827998        -0.876296
 H        -2.647174        -2.612848         1.298076
 H        -3.521141        -1.629454         2.427614
 H        -3.718001        -1.381360         0.714553
 H        -1.494249        -0.043637         2.238242
 H        -2.915882         0.878192        -0.238969
 H        -0.913778         1.625127        -1.045257
 H        -0.421185         1.947896         0.647644
 H         0.771326        -2.962953         0.349363
 H        -0.898676        -3.239431         0.687701
 H        -0.427365        -2.899508        -0.892590
