19
Iteration:    50
 C        -2.928280        -1.553234         1.574533
 C        -1.709799        -0.735053         1.224484
 C        -2.050998         0.294831         0.036123
 C        -0.731905         1.159873        -0.281334
 C         0.300967         0.042585         0.040685
 O         1.484152         0.142311         0.267103
 C        -0.675937        -1.178233         0.113160
 C        -0.196645        -2.584670         0.032992
 O        -1.579153        -0.777097        -0.929434
 H        -2.519127        -2.395181         2.200375
 H        -3.492463        -0.880705         2.272176
 H        -3.586070        -2.019445         0.815175
 H        -1.273236        -0.427120         2.226283
 H        -3.086319         0.636263        -0.181428
 H        -0.832340         1.533686        -1.378494
 H        -0.464330         2.181270         0.320301
 H         0.798383        -2.584308         0.516028
 H        -0.679898        -3.330516         0.665189
 H        -0.201027        -2.945016        -1.016695
