19
Iteration:  1525
 C        -2.807776        -1.539271         1.558957
 C        -1.704700        -0.602382         1.211974
 C        -1.989931         0.384874         0.042685
 C        -0.748667         1.183671        -0.095208
 C         0.211571         0.003976         0.085803
 O         1.385083        -0.074500         0.026152
 C        -0.679894        -1.143437         0.153048
 C        -0.091957        -2.577395         0.108479
 O        -1.659315        -0.795489        -0.956639
 H        -2.518069        -2.411546         2.089869
 H        -3.490747        -0.904884         2.099039
 H        -3.278142        -1.838342         0.631889
 H        -1.209552        -0.178375         2.096417
 H        -3.044624         0.842157        -0.082936
 H        -0.730575         1.857402        -0.890223
 H        -0.541424         1.730017         0.848383
 H         0.529901        -2.981159         0.890256
 H        -0.935784        -3.179278        -0.100470
 H         0.567891        -2.578702        -0.760648
