19
Iteration:  1728
 C        -2.825075        -1.558416         1.637335
 C        -1.736829        -0.646520         1.272781
 C        -1.960821         0.333612         0.083975
 C        -0.696754         1.168995        -0.164546
 C         0.334033         0.077921        -0.005790
 O         1.509790         0.123536         0.142119
 C        -0.726819        -1.221403         0.099501
 C        -0.308153        -2.646249         0.025561
 O        -1.681946        -0.785953        -0.960891
 H        -2.547190        -2.219248         2.493066
 H        -3.793456        -1.031579         1.781115
 H        -3.006473        -2.276303         0.797387
 H        -1.066148        -0.271342         2.138932
 H        -2.887879         0.792470         0.041746
 H        -0.696304         1.394181        -1.246756
 H        -0.489399         2.017680         0.442994
 H        -0.142981        -2.934890         1.100612
 H        -0.961880        -3.423009        -0.464063
 H         0.619911        -2.577331        -0.643504
