19
Iteration:  4125
 C        -2.966835        -1.603188         1.609157
 C        -1.698213        -0.635065         1.183506
 C        -1.946631         0.392274         0.107859
 C        -0.658534         1.212955        -0.121951
 C         0.206517        -0.029915        -0.048132
 O         1.453441         0.070136         0.109612
 C        -0.694921        -1.242190         0.154679
 C        -0.140095        -2.645348         0.053507
 O        -1.630411        -0.712167        -0.952848
 H        -3.491226        -1.901432         0.696039
 H        -2.738444        -2.461666         2.329305
 H        -3.620560        -0.925735         2.165249
 H        -1.260130        -0.100511         2.198614
 H        -2.940886         0.747473        -0.007487
 H        -0.696346         1.535195        -1.268313
 H        -0.213094         1.970416         0.594361
 H         0.183857        -2.948882         1.076441
 H        -0.989131        -3.386346        -0.106381
 H         0.611928        -2.685382        -0.726512
