19
Iteration:   422
 C        -2.860215        -1.586052         1.526702
 C        -1.642389        -0.541117         1.221839
 C        -2.017764         0.367089        -0.092836
 C        -0.734280         1.278535        -0.269350
 C         0.329433         0.085378         0.049003
 O         1.516185         0.107957         0.257514
 C        -0.700411        -1.206772         0.229483
 C        -0.229149        -2.620778        -0.040552
 O        -1.690907        -1.021314        -0.773419
 H        -2.592351        -2.177907         2.399974
 H        -3.701713        -0.882458         1.593632
 H        -2.934510        -2.134216         0.583187
 H        -1.249832        -0.064084         2.154484
 H        -3.221191         0.576535        -0.289661
 H        -0.681541         1.721872        -1.175798
 H        -0.803746         2.116147         0.554844
 H         0.475458        -3.044817         0.673171
 H        -1.257411        -3.141683         0.052995
 H         0.253555        -2.713088        -1.045699
