19
Iteration:  1595
 C        -2.882580        -1.531388         1.487656
 C        -1.593274        -0.633430         1.253303
 C        -1.999317         0.351401         0.066558
 C        -0.794518         1.189430        -0.065970
 C         0.300573         0.065711         0.068238
 O         1.471540         0.050482         0.013245
 C        -0.738661        -1.244024         0.126708
 C        -0.251774        -2.645582         0.051334
 O        -1.605687        -0.795090        -0.892639
 H        -2.764732        -2.149950         2.444949
 H        -3.747713        -0.819092         1.553623
 H        -2.907522        -2.277063         0.658070
 H        -1.215666        -0.056745         2.217243
 H        -2.957659         0.766197        -0.105429
 H        -0.515201         1.931414        -0.900520
 H        -0.681523         1.835310         0.790316
 H         0.840071        -2.709858         0.445128
 H        -0.995555        -3.134816         0.799730
 H        -0.163324        -3.136547        -0.964142
