19
Iteration:  3386
 C        -2.815470        -1.554803         1.727144
 C        -1.872545        -0.624673         1.106998
 C        -1.963988         0.339133        -0.090282
 C        -0.730441         1.110451        -0.114941
 C         0.293601        -0.012869         0.058204
 O         1.471074        -0.015298         0.155587
 C        -0.783250        -1.153459         0.122477
 C        -0.144896        -2.600380         0.066478
 O        -1.593045        -0.671012        -0.981247
 H        -3.230313        -2.307765         1.005323
 H        -2.387839        -2.081387         2.603634
 H        -3.745057        -0.955182         2.057813
 H        -1.266281        -0.124513         1.838801
 H        -2.917886         0.846153        -0.250235
 H        -0.599002         1.611143        -1.112575
 H        -0.611041         1.677191         0.861474
 H         0.283792        -2.770639         1.085926
 H        -0.868436        -3.365841        -0.061944
 H         0.724412        -2.625171        -0.610561
