19
Iteration:  1300
 C        -2.806733        -1.645478         1.640008
 C        -1.727742        -0.651456         1.162948
 C        -2.057556         0.339843         0.006808
 C        -0.764909         1.228796        -0.089697
 C         0.273423        -0.027686         0.042063
 O         1.465709        -0.112816         0.095723
 C        -0.710052        -1.156355         0.103811
 C        -0.142607        -2.508811         0.150216
 O        -1.632127        -0.655329        -1.031858
 H        -2.582679        -2.566558         2.229033
 H        -3.454509        -1.146563         2.393163
 H        -3.209536        -1.903610         0.627635
 H        -1.310904        -0.105205         2.015392
 H        -2.985822         0.808337         0.156508
 H        -0.721712         1.869267        -1.123420
 H        -0.557388         2.036223         0.712887
 H         0.445607        -2.749608         1.073313
 H        -0.909114        -3.246134         0.182086
 H         0.410946        -2.692283        -0.764538
