19
Iteration:  1332
 C        -2.879164        -1.560716         1.620508
 C        -1.741398        -0.658135         1.191596
 C        -1.928251         0.365477         0.023068
 C        -0.679085         1.188956        -0.070961
 C         0.327316         0.031985         0.088793
 O         1.489091         0.203115         0.065994
 C        -0.723932        -1.272805         0.107811
 C        -0.273032        -2.652173         0.063170
 O        -1.635235        -0.867422        -0.942684
 H        -2.507787        -2.592284         1.789678
 H        -3.607388        -1.110646         2.325863
 H        -3.571486        -1.599246         0.736590
 H        -1.444161        -0.040752         2.032112
 H        -2.861213         0.819714         0.028082
 H        -0.482101         1.774370        -1.066096
 H        -0.613659         2.009115         0.728867
 H         0.728709        -2.825529         0.552626
 H        -1.105691        -3.265948         0.346065
 H        -0.192459        -2.889449        -1.008617
