19
Iteration:  2553charge 0 multiplicity 1
 C        -2.905691        -1.490751         1.670272
 C        -1.753463        -0.707013         1.222340
 C        -1.928219         0.259670         0.035251
 C        -0.805826         1.105589        -0.159265
 C         0.287966         0.012380         0.075965
 O         1.502849         0.093792         0.198264
 C        -0.710023        -1.149322         0.096885
 C        -0.266084        -2.588604        -0.043079
 O        -1.511592        -0.769387        -0.957055
 H        -3.288136        -2.117559         0.847952
 H        -2.964765        -2.105028         2.625195
 H        -3.723203        -0.745848         1.839295
 H        -1.142963        -0.076686         1.910939
 H        -2.920128         0.743289        -0.069968
 H        -0.681095         1.505445        -1.206284
 H        -0.587806         1.990054         0.495690
 H         0.285206        -2.921241         0.797363
 H        -1.153485        -3.143790        -0.319715
 H         0.528202        -2.662485        -0.829876
