19
Iteration:   961
 C        -2.892288        -1.603518         1.599036
 C        -1.725150        -0.679508         1.262331
 C        -1.957078         0.368115         0.013264
 C        -0.605473         1.166175        -0.207142
 C         0.250642         0.031138         0.104884
 O         1.448305         0.209201         0.179405
 C        -0.719268        -1.249722         0.104118
 C        -0.198002        -2.687368         0.022739
 O        -1.653575        -0.760122        -0.918839
 H        -2.766435        -2.297720         2.470268
 H        -3.768902        -0.969830         1.721145
 H        -3.171539        -2.122844         0.688922
 H        -1.319781        -0.303658         2.210700
 H        -2.921832         0.878484        -0.096770
 H        -0.582120         1.520947        -1.339573
 H        -0.267264         1.918056         0.391551
 H         0.807442        -2.953256         0.251567
 H        -1.042700        -3.203354         0.547117
 H        -0.292434        -2.828133        -1.071875
