19
Iteration:  3404
 C        -2.976585        -1.525495         1.663226
 C        -1.733495        -0.627879         1.207410
 C        -2.018553         0.346039        -0.053725
 C        -0.677867         1.271145        -0.034766
 C         0.272835        -0.010918         0.075429
 O         1.447130        -0.039176         0.099941
 C        -0.714302        -1.176569         0.130992
 C        -0.102418        -2.559561         0.057083
 O        -1.615732        -0.845566        -1.028083
 H        -3.109962        -2.430367         1.069821
 H        -2.651047        -1.962159         2.595974
 H        -3.773663        -0.866222         1.881360
 H        -1.336687        -0.045277         2.097307
 H        -2.982371         0.711659        -0.335401
 H        -0.463874         1.746700        -1.076234
 H        -0.433967         1.935117         0.859257
 H         0.581203        -2.703776         0.872113
 H        -0.909316        -3.290071        -0.043457
 H         0.408572        -2.584282        -0.896981
