19
Iteration:  2012
 C        -2.789631        -1.543452         1.582392
 C        -1.561109        -0.663204         1.206022
 C        -1.992898         0.353342         0.006064
 C        -0.803682         1.170282        -0.068124
 C         0.380083         0.018350        -0.028310
 O         1.542192         0.186708         0.180611
 C        -0.677922        -1.190769         0.105505
 C        -0.352751        -2.737560        -0.054064
 O        -1.796433        -0.758748        -0.853684
 H        -3.323397        -0.935462         2.370225
 H        -3.479577        -1.855292         0.724047
 H        -2.435086        -2.442734         2.136296
 H        -1.169528        -0.195601         2.081070
 H        -2.914036         0.802769        -0.115458
 H        -0.624930         1.615801        -1.026854
 H        -0.466103         1.767895         0.791722
 H        -0.165141        -3.331328         0.851679
 H        -1.141718        -3.247601        -0.604819
 H         0.590858        -2.939455        -0.703826
