19
Iteration:  2973charge 0 multiplicity 1
 C        -3.022447        -1.518039         1.720191
 C        -1.797274        -0.688082         1.151918
 C        -1.989313         0.287371        -0.066823
 C        -0.684875         1.199608        -0.061208
 C         0.276288        -0.031681         0.162151
 O         1.440710        -0.048292         0.048019
 C        -0.682357        -1.133697         0.194935
 C        -0.100593        -2.543728         0.098106
 O        -1.525442        -0.745621        -1.075271
 H        -3.555183        -2.144292         1.012174
 H        -2.686012        -2.112983         2.549641
 H        -3.767962        -0.757487         2.008165
 H        -1.564321        -0.035178         1.971276
 H        -2.885001         0.862507        -0.409532
 H        -0.626293         1.439785        -1.155262
 H        -0.659934         2.122618         0.739114
 H         0.767048        -2.570590         0.733255
 H        -0.731652        -3.376291         0.214955
 H         0.304906        -2.630582        -0.897381
