19
Iteration:  1134charge 0 multiplicity 1
 C        -2.926415        -1.650130         1.504791
 C        -1.732777        -0.653603         1.221721
 C        -1.957795         0.343612         0.083911
 C        -0.777666         1.237656        -0.099984
 C         0.229612        -0.008310         0.084004
 O         1.440240        -0.139467         0.001373
 C        -0.695863        -1.149614         0.181304
 C        -0.086499        -2.514344         0.157633
 O        -1.628223        -0.635022        -0.972553
 H        -2.499802        -2.450993         2.195508
 H        -3.839849        -1.305314         2.050783
 H        -3.038183        -2.176793         0.552755
 H        -1.479066        -0.018160         2.086538
 H        -2.884143         0.754814        -0.011120
 H        -0.719539         1.631597        -1.208614
 H        -0.235876         2.097805         0.408168
 H         0.648238        -2.456483         0.937516
 H        -0.775559        -3.331873         0.456415
 H         0.424762        -2.654777        -0.806476
