19
Iteration:   273
 C        -2.891325        -1.572634         1.373935
 C        -1.669011        -0.659467         1.201466
 C        -2.011471         0.342263         0.023752
 C        -0.736134         1.192997        -0.131682
 C         0.274413         0.084041         0.051336
 O         1.486829         0.125159         0.073527
 C        -0.667457        -1.198060         0.184666
 C        -0.096968        -2.667444         0.235375
 O        -1.732362        -0.822904        -0.880681
 H        -2.871007        -2.189588         2.275755
 H        -3.764894        -0.889163         1.466272
 H        -3.056713        -2.176773         0.485670
 H        -1.319651        -0.311293         2.160719
 H        -3.019867         0.706204         0.017042
 H        -0.539799         1.879665        -1.080273
 H        -0.665610         2.000481         0.514183
 H         0.745142        -2.850016         0.887637
 H        -1.025255        -3.263150         0.372332
 H         0.251270        -3.038886        -0.723416
