19
Iteration:  3414
 C        -2.937973        -1.478605         1.580953
 C        -1.774152        -0.616438         1.234213
 C        -1.869701         0.280558        -0.053643
 C        -0.758365         1.215915        -0.013423
 C         0.238689         0.066007         0.083386
 O         1.491720        -0.058053         0.067105
 C        -0.734870        -1.145500         0.141300
 C        -0.091486        -2.562104         0.023457
 O        -1.646629        -0.847200        -0.942082
 H        -3.320701        -2.226442         0.880532
 H        -2.801051        -1.817913         2.600975
 H        -3.845767        -0.909237         1.607556
 H        -1.192618        -0.181249         2.101653
 H        -2.870178         0.633183        -0.226987
 H        -0.604326         1.693538        -1.030206
 H        -0.708845         1.959059         0.801891
 H         0.695291        -2.794439         0.738325
 H        -0.890189        -3.348914         0.256905
 H         0.381456        -2.683916        -0.962052
