19
Iteration:  4424
 C        -2.933064        -1.567892         1.508675
 C        -1.712383        -0.594742         1.190002
 C        -2.044405         0.377236        -0.008261
 C        -0.661150         1.221669        -0.033972
 C         0.238848        -0.063167        -0.006447
 O         1.453583        -0.085795         0.062212
 C        -0.705073        -1.178784         0.107778
 C        -0.074880        -2.558108         0.132783
 O        -1.665584        -0.742321        -0.905592
 H        -3.396848        -2.047802         0.619402
 H        -2.588861        -2.308854         2.250934
 H        -3.669516        -0.915660         2.052739
 H        -1.292096        -0.078037         2.012598
 H        -3.038329         0.810878        -0.174925
 H        -0.483672         2.074538        -0.641410
 H        -0.567340         1.746875         1.030669
 H         0.652360        -2.673432         0.989291
 H        -0.813883        -3.351562         0.200708
 H         0.521504        -2.684615        -0.813637
