19
Iteration:  3035
 C        -2.825295        -1.598087         1.480659
 C        -1.648421        -0.645194         1.213361
 C        -1.990727         0.373882         0.005908
 C        -0.675757         1.198007        -0.311826
 C         0.285709         0.001894         0.072282
 O         1.501759         0.090728         0.243694
 C        -0.703423        -1.200466         0.100036
 C        -0.297505        -2.582334         0.130622
 O        -1.728948        -0.812781        -0.877756
 H        -3.383184        -1.813684         0.552899
 H        -2.544529        -2.594522         1.902231
 H        -3.425161        -1.137836         2.270454
 H        -1.273948        -0.128671         2.132170
 H        -2.962945         0.752380        -0.153581
 H        -0.520880         1.664060        -1.224110
 H        -0.335080         1.900581         0.353247
 H        -0.103146        -2.802134         1.250902
 H        -1.056700        -3.344520        -0.230442
 H         0.732794        -2.552219        -0.272535
