19
Iteration:  1284charge 0 multiplicity 1
 C        -2.762994        -1.610143         1.563559
 C        -1.730916        -0.609465         1.193882
 C        -1.973601         0.414602         0.025085
 C        -0.713400         1.210484        -0.020308
 C         0.202826         0.031630         0.042352
 O         1.423977        -0.174147         0.087835
 C        -0.756790        -1.161530         0.066583
 C        -0.112322        -2.476383         0.115680
 O        -1.705096        -0.757423        -0.968378
 H        -2.121565        -2.189772         2.232786
 H        -3.654471        -1.201669         2.046526
 H        -3.192917        -2.239434         0.793623
 H        -1.294030        -0.198293         2.145214
 H        -2.977530         0.742176        -0.456387
 H        -0.526419         1.739044        -0.884362
 H        -0.663585         1.952457         0.742112
 H         0.336195        -2.472242         1.101117
 H        -0.783927        -3.364260        -0.148157
 H         0.763549        -2.495660        -0.603427
