19
Iteration:  4338
 C        -2.887784        -1.510139         1.494410
 C        -1.714590        -0.632874         1.168714
 C        -2.028187         0.363761        -0.032851
 C        -0.686620         1.175539         0.044434
 C         0.324404         0.018561         0.080060
 O         1.541312         0.038872        -0.010966
 C        -0.667676        -1.179895         0.114435
 C        -0.178681        -2.636100         0.125384
 O        -1.721596        -0.805341        -0.868869
 H        -3.438349        -1.831340         0.640319
 H        -2.715837        -2.464056         1.899209
 H        -3.466277        -0.929708         2.084157
 H        -1.297690        -0.207317         2.115349
 H        -2.943834         0.882563        -0.317576
 H        -0.729807         1.654107        -0.867691
 H        -0.823235         1.924305         0.815436
 H        -0.127292        -3.067773         1.117437
 H        -0.975696        -3.258558        -0.148540
 H         0.706647        -2.663253        -0.472659
