19
Iteration:   198
 C        -2.900745        -1.553269         1.572864
 C        -1.778008        -0.678051         1.151048
 C        -2.028379         0.315794         0.005262
 C        -0.773392         1.247429        -0.046724
 C         0.224300         0.013514         0.095179
 O         1.441478         0.077876        -0.022728
 C        -0.740698        -1.219594         0.209136
 C        -0.159648        -2.546138         0.209961
 O        -1.441315        -0.848058        -1.039160
 H        -2.479390        -2.453039         1.995734
 H        -3.561826        -1.081585         2.307675
 H        -3.547150        -1.877667         0.765219
 H        -1.277612        -0.256556         2.016285
 H        -2.996025         0.760378        -0.265622
 H        -0.613203         1.995889        -0.886008
 H        -0.556826         1.896420         0.756151
 H         0.315640        -2.749678         1.219495
 H        -0.810520        -3.443818        -0.029264
 H         0.633830        -2.464058        -0.533145
