19
Iteration:  2106charge 0 multiplicity 1
 C        -2.933476        -1.539814         1.470273
 C        -1.667900        -0.654591         1.218597
 C        -1.934535         0.324750         0.114837
 C        -0.705953         1.235307         0.052465
 C         0.289599         0.024999         0.090569
 O         1.441395        -0.041736        -0.109039
 C        -0.673420        -1.189832         0.170172
 C        -0.112602        -2.587686         0.063166
 O        -1.742974        -0.742766        -0.918738
 H        -3.855057        -0.978868         1.530642
 H        -3.137313        -2.390197         0.864047
 H        -2.936156        -1.911204         2.501447
 H        -1.109238        -0.331792         2.162010
 H        -3.049679         0.784185         0.052694
 H        -0.711013         1.869013        -0.910963
 H        -0.514258         1.739658         0.997198
 H         0.881099        -2.524952         0.552938
 H        -0.732758        -3.461888         0.249518
 H         0.076662        -2.638921        -0.996116
