19
Iteration:  4697charge 0 multiplicity 1
 C        -2.958996        -1.649023         1.540798
 C        -1.911023        -0.662000         1.160700
 C        -1.933013         0.409844        -0.030541
 C        -0.662552         1.219792        -0.031024
 C         0.295410         0.025213         0.108574
 O         1.482608        -0.067943        -0.060625
 C        -0.733492        -1.170631         0.244843
 C        -0.162686        -2.586793         0.132096
 O        -1.543894        -0.671260        -0.888338
 H        -2.991010        -2.437866         0.698669
 H        -2.619453        -2.179948         2.490438
 H        -4.001409        -1.214533         1.649427
 H        -1.396009        -0.306756         2.153718
 H        -2.869161         0.980353        -0.269032
 H        -0.446938         1.602198        -1.083959
 H        -0.620166         2.092900         0.698444
 H         0.792190        -2.671107         0.645296
 H        -0.961065        -3.367669         0.294209
 H         0.120318        -2.743052        -0.873838
