19
Iteration:  2001charge 0 multiplicity 1
 C        -2.807893        -1.528020         1.613897
 C        -1.645661        -0.650842         1.244444
 C        -2.004697         0.329511         0.055232
 C        -0.673665         1.159999        -0.144203
 C         0.310072         0.077817         0.015565
 O         1.546415         0.152798         0.183940
 C        -0.641546        -1.202017         0.000327
 C        -0.333088        -2.678879        -0.106368
 O        -1.776506        -0.835359        -0.817680
 H        -3.266181        -1.217351         2.579991
 H        -3.636596        -1.612657         0.818286
 H        -2.498385        -2.596536         1.772560
 H        -1.102566        -0.353934         2.120840
 H        -2.888502         0.852773        -0.027082
 H        -0.507794         1.772705        -1.014493
 H        -0.839052         1.926398         0.638090
 H        -0.234058        -2.870500         0.968039
 H        -1.212310        -3.199608        -0.475999
 H         0.656372        -2.906487        -0.659348
