19
Iteration:  2715
 C        -2.952334        -1.569411         1.629346
 C        -1.763182        -0.709778         1.115741
 C        -2.039685         0.317097        -0.030187
 C        -0.646216         1.193219        -0.141481
 C         0.263796        -0.043021         0.104400
 O         1.465902        -0.020309         0.097977
 C        -0.781204        -1.167026         0.112416
 C        -0.118474        -2.512234         0.216542
 O        -1.584579        -0.693628        -1.008729
 H        -3.612876        -1.888796         0.824010
 H        -2.535290        -2.533983         1.981729
 H        -3.436425        -1.123589         2.488817
 H        -1.444780        -0.159440         2.012209
 H        -3.013383         0.797483        -0.283768
 H        -0.345850         1.858940        -1.049054
 H        -0.413574         1.828741         0.752398
 H         0.560795        -2.611975         1.068213
 H        -0.907455        -3.262925        -0.030394
 H         0.720909        -2.626839        -0.553231
