19
Iteration:  1645
 C        -2.937572        -1.588791         1.655816
 C        -1.819347        -0.619472         1.234175
 C        -1.924090         0.365654         0.016951
 C        -0.710368         1.248125        -0.089061
 C         0.265508        -0.064905         0.081268
 O         1.526934         0.108503         0.028987
 C        -0.711475        -1.237871         0.118844
 C        -0.170076        -2.624877         0.087199
 O        -1.625462        -0.781162        -0.939415
 H        -2.613571        -2.608559         1.772773
 H        -3.488961        -1.262377         2.543267
 H        -3.560867        -1.535329         0.764316
 H        -1.381159        -0.213430         2.091788
 H        -2.947592         0.775549        -0.367735
 H        -0.667511         1.488416        -1.138495
 H        -0.400261         2.168744         0.528300
 H         0.845443        -2.727313         0.349180
 H        -0.811698        -3.360499         0.457858
 H        -0.077636        -2.733598        -0.968205
