19
Iteration:  3385
 C        -2.817243        -1.556553         1.722243
 C        -1.868385        -0.621525         1.115284
 C        -1.958852         0.338021        -0.095591
 C        -0.738162         1.108108        -0.111776
 C         0.293895        -0.013845         0.059361
 O         1.473483        -0.014593         0.158022
 C        -0.786365        -1.153278         0.119368
 C        -0.146716        -2.605285         0.071692
 O        -1.596752        -0.666668        -0.986644
 H        -3.215301        -2.339579         1.020442
 H        -2.360424        -2.077048         2.574240
 H        -3.704558        -0.944945         2.090690
 H        -1.275349        -0.112976         1.862899
 H        -2.890645         0.823962        -0.263624
 H        -0.610881         1.601782        -1.149195
 H        -0.596116         1.702688         0.881840
 H         0.261656        -2.759254         1.080678
 H        -0.853725        -3.345119        -0.088397
 H         0.705954        -2.633239        -0.598568
