19
Iteration:  1184charge 0 multiplicity 1
 C        -2.904278        -1.550003         1.575356
 C        -1.813193        -0.600801         1.229251
 C        -2.029539         0.322805        -0.060499
 C        -0.695592         1.141848         0.039266
 C         0.347090         0.045331         0.032851
 O         1.521256         0.089591        -0.025029
 C        -0.649959        -1.117158         0.095677
 C        -0.182075        -2.633157         0.128804
 O        -1.677399        -0.877557        -0.934347
 H        -2.516350        -2.483027         1.942352
 H        -3.396685        -1.182741         2.467830
 H        -3.505920        -1.699540         0.687178
 H        -1.361762        -0.225933         2.171069
 H        -2.918206         1.082780        -0.256786
 H        -0.501105         1.930164        -0.572313
 H        -0.598856         1.765134         0.887362
 H        -0.207287        -3.017364         1.183067
 H        -0.891315        -3.239431        -0.492912
 H         0.756441        -2.669157        -0.438409
