19
Iteration:  3855
 C        -2.930629        -1.487180         1.557746
 C        -1.701511        -0.638637         1.249214
 C        -1.952614         0.230834         0.080573
 C        -0.674915         1.153864        -0.220368
 C         0.282866         0.026981         0.060489
 O         1.474239         0.059963         0.193890
 C        -0.698350        -1.155871         0.116473
 C        -0.146861        -2.641557        -0.043485
 O        -1.706334        -0.748372        -0.895895
 H        -3.748717        -1.465055         0.839806
 H        -2.651005        -2.528900         1.763815
 H        -3.424818        -0.951374         2.432341
 H        -1.207853        -0.364688         2.157329
 H        -2.934369         0.726552        -0.037007
 H        -0.750413         1.542309        -1.226581
 H        -0.565000         1.993408         0.451989
 H         0.412192        -2.733243         0.914555
 H        -1.000712        -3.355621        -0.207961
 H         0.677725        -2.747752        -0.734552
