19
Iteration:   274charge 0 multiplicity 1
 C        -2.893163        -1.570017         1.367362
 C        -1.667358        -0.662365         1.199471
 C        -2.011750         0.330346         0.033700
 C        -0.737687         1.200853        -0.133828
 C         0.282181         0.085423         0.043030
 O         1.495946         0.131531         0.078777
 C        -0.675397        -1.205040         0.181299
 C        -0.105076        -2.671157         0.238241
 O        -1.732118        -0.821041        -0.874654
 H        -2.858151        -2.178756         2.262837
 H        -3.750313        -0.886239         1.469988
 H        -3.053968        -2.158505         0.481845
 H        -1.326510        -0.325059         2.147270
 H        -3.032250         0.753640         0.025979
 H        -0.574355         1.816288        -1.106334
 H        -0.685279         2.014865         0.496826
 H         0.754886        -2.845815         0.888755
 H        -1.015441        -3.283191         0.377064
 H         0.249112        -3.007779        -0.733239
