19
Iteration:  1125charge 0 multiplicity 1
 C        -2.880775        -1.657730         1.477874
 C        -1.781535        -0.679137         1.238025
 C        -2.007200         0.341027         0.028259
 C        -0.662175         1.269484        -0.094359
 C         0.284243         0.069027         0.024410
 O         1.481422        -0.086635         0.017636
 C        -0.722458        -1.191900         0.201345
 C        -0.144265        -2.518794         0.158564
 O        -1.666831        -0.700283        -0.899502
 H        -2.637946        -2.384440         2.283604
 H        -3.768706        -1.050535         1.726838
 H        -3.203412        -2.206789         0.574708
 H        -1.289054        -0.328479         2.190358
 H        -2.960468         0.851553        -0.119274
 H        -0.833483         1.602706        -1.174675
 H        -0.475966         2.017377         0.623273
 H         0.796266        -2.485045         0.698095
 H        -0.738622        -3.367558         0.462461
 H         0.275434        -2.679933        -0.838803
