19
Iteration:  2224
 C        -2.865978        -1.537284         1.683124
 C        -1.710974        -0.684196         1.158033
 C        -1.991562         0.403313        -0.000790
 C        -0.715135         1.114889        -0.096465
 C         0.278457        -0.040176         0.048447
 O         1.455437        -0.052288         0.186110
 C        -0.731408        -1.224795         0.120315
 C        -0.076596        -2.533029        -0.040573
 O        -1.758879        -0.669452        -0.961251
 H        -2.492841        -1.650260         2.780355
 H        -3.856062        -1.046533         1.544183
 H        -2.979288        -2.572091         1.205722
 H        -1.126496        -0.268174         1.982149
 H        -2.915764         0.982726        -0.114823
 H        -0.660828         1.638169        -1.120472
 H        -0.577665         1.856162         0.660154
 H         0.855323        -2.276656         0.620760
 H        -0.729116        -3.463786         0.195514
 H         0.317223        -2.677422        -1.090305
