19
Iteration:  4526charge 0 multiplicity 1
 C        -2.827141        -1.598497         1.677164
 C        -1.726583        -0.658449         1.138737
 C        -1.997054         0.342200         0.005878
 C        -0.721196         1.192503        -0.085439
 C         0.303129         0.032643         0.012920
 O         1.504063        -0.013122         0.270845
 C        -0.704943        -1.169619        -0.011295
 C        -0.273907        -2.608872         0.101324
 O        -1.647734        -0.704385        -1.049605
 H        -3.194990        -2.192745         0.871658
 H        -2.540907        -2.145547         2.579213
 H        -3.698442        -1.102321         2.046797
 H        -1.171968        -0.252132         2.000697
 H        -3.051001         0.748370        -0.090930
 H        -0.624227         1.820344        -1.045076
 H        -0.375874         2.188457         0.601105
 H         0.685756        -2.598621         0.625619
 H        -1.066173        -3.441417         0.448123
 H        -0.061104        -2.964925        -0.925639
