19
Iteration:  2255charge 0 multiplicity 1
 C        -2.874285        -1.428593         1.598194
 C        -1.635445        -0.614025         1.268208
 C        -1.978303         0.307522        -0.021964
 C        -0.746899         1.186070        -0.151448
 C         0.272962         0.061377         0.074017
 O         1.463357         0.055008         0.240448
 C        -0.601758        -1.243297         0.067138
 C        -0.258480        -2.617611        -0.225133
 O        -1.667561        -0.869221        -0.783940
 H        -2.528095        -2.197955         2.395307
 H        -3.663066        -0.930991         2.166748
 H        -3.236631        -2.040640         0.732024
 H        -1.249988        -0.073247         2.145004
 H        -2.892167         0.707986        -0.225806
 H        -0.729969         1.651115        -1.149169
 H        -0.764968         1.922784         0.650769
 H         0.295607        -2.884758         0.694230
 H        -1.198694        -3.230718        -0.196745
 H         0.334611        -2.753433        -1.091296
