19
Iteration:  2397charge 0 multiplicity 1
 C        -3.040420        -1.411324         1.416736
 C        -1.701540        -0.752983         1.227807
 C        -1.971266         0.240659         0.116707
 C        -0.685736         1.162574        -0.037293
 C         0.231797         0.031726         0.072623
 O         1.469982         0.171559        -0.087348
 C        -0.644261        -1.203481         0.222828
 C        -0.163136        -2.673325         0.118243
 O        -1.542391        -0.776880        -0.880018
 H        -3.177083        -2.411873         0.908354
 H        -3.003132        -1.602505         2.485786
 H        -3.905117        -0.768715         1.138855
 H        -1.289290        -0.349946         2.236549
 H        -2.883981         0.695574        -0.059823
 H        -0.719904         1.547759        -1.110545
 H        -0.669831         1.925890         0.753139
 H         0.660291        -2.965338         0.780661
 H        -0.990391        -3.343262         0.324761
 H         0.068475        -2.803706        -0.907690
