19
Iteration:  3283charge 0 multiplicity 1
 C        -2.984879        -1.455760         1.550472
 C        -1.791048        -0.623378         1.276128
 C        -1.991500         0.258094         0.057515
 C        -0.704675         1.161113        -0.170186
 C         0.241498         0.015423         0.053298
 O         1.514227        -0.018758         0.160884
 C        -0.660174        -1.142040         0.135270
 C        -0.084557        -2.578783        -0.000810
 O        -1.633810        -0.799005        -0.926937
 H        -3.345308        -2.069061         0.746005
 H        -2.712891        -2.146591         2.369537
 H        -3.702088        -0.777393         1.952786
 H        -1.258479        -0.178142         2.100984
 H        -2.863073         0.789807        -0.342106
 H        -0.874710         1.677551        -1.197556
 H        -0.638532         1.911470         0.708591
 H         0.684891        -2.611596         0.703856
 H        -0.779559        -3.433663         0.080467
 H         0.337834        -2.736005        -0.956252
