19
Iteration:   214charge 0 multiplicity 1
 C        -2.968413        -1.679591         1.710167
 C        -1.885003        -0.685112         1.166012
 C        -1.928637         0.327471        -0.173568
 C        -0.735064         1.242472         0.002320
 C         0.192379         0.088461         0.093004
 O         1.379148        -0.070777        -0.064278
 C        -0.675050        -1.136183         0.182882
 C        -0.032438        -2.531399         0.200822
 O        -1.429609        -0.694303        -1.003937
 H        -2.565240        -2.495341         2.364209
 H        -3.682009        -1.121490         2.347905
 H        -3.613495        -2.188058         0.951475
 H        -1.450473        -0.039421         1.998803
 H        -2.907402         0.618379        -0.574373
 H        -0.585848         1.683499        -0.977920
 H        -0.887849         1.996775         0.854687
 H         0.338008        -2.794351         1.176844
 H        -0.825554        -3.254051         0.165500
 H         0.608666        -2.713963        -0.680426
