19
Iteration:  3838
 C        -2.948913        -1.492559         1.554578
 C        -1.637612        -0.693043         1.235625
 C        -1.987558         0.400104        -0.005322
 C        -0.746294         1.210681        -0.113010
 C         0.306636         0.023452        -0.045679
 O         1.506156         0.078249         0.178738
 C        -0.641207        -1.227217         0.147541
 C        -0.181134        -2.604353         0.037209
 O        -1.700737        -0.875235        -0.873368
 H        -3.608424        -1.493518         0.664194
 H        -2.778885        -2.552125         1.770748
 H        -3.536934        -1.216999         2.389171
 H        -1.272330        -0.076203         2.130787
 H        -2.981381         0.863621        -0.168190
 H        -0.621675         1.746339        -1.072725
 H        -0.408383         1.929026         0.708707
 H         0.394093        -3.110220         0.784227
 H        -1.137482        -3.089509        -0.148198
 H         0.330599        -2.694086        -0.944799
