19
Iteration:  4547charge 0 multiplicity 1
 C        -2.806594        -1.611266         1.708578
 C        -1.771453        -0.680300         1.138084
 C        -1.905163         0.388183        -0.052670
 C        -0.691741         1.236790        -0.105287
 C         0.248007        -0.068475         0.031694
 O         1.433619        -0.037020         0.240016
 C        -0.723600        -1.213695         0.043187
 C        -0.187900        -2.599523         0.058526
 O        -1.688380        -0.638428        -1.012772
 H        -3.069236        -2.420749         1.025241
 H        -2.396536        -2.029998         2.654565
 H        -3.643512        -0.948498         1.891381
 H        -1.389338        -0.115828         1.959766
 H        -2.909769         0.860812        -0.234636
 H        -0.451685         1.782718        -1.011990
 H        -0.684321         2.117298         0.621616
 H         0.479492        -2.675983         0.925550
 H        -0.982968        -3.467887         0.220447
 H         0.410481        -2.754417        -0.831000
