19
Iteration:  3790
 C        -2.842786        -1.696330         1.589117
 C        -1.836370        -0.654247         1.186062
 C        -1.967688         0.393591         0.013960
 C        -0.696171         1.213767        -0.055796
 C         0.265823         0.067147         0.049306
 O         1.496095        -0.053345        -0.000975
 C        -0.726096        -1.232022         0.144879
 C        -0.250403        -2.546891         0.159175
 O        -1.547376        -0.663404        -0.981855
 H        -3.337359        -2.364007         0.931338
 H        -2.620751        -2.199882         2.522982
 H        -3.753833        -1.040201         1.776449
 H        -1.373051        -0.336841         2.048430
 H        -2.948267         0.878319        -0.204167
 H        -0.592021         1.840131        -0.964874
 H        -0.614704         1.881395         0.828940
 H         0.716873        -2.553524         0.748566
 H        -0.968971        -3.341659         0.492081
 H         0.189676        -2.872487        -0.777107
