19
Iteration:  3737charge 0 multiplicity 1
 C        -2.975592        -1.526176         1.409350
 C        -1.741457        -0.544535         1.218944
 C        -1.964971         0.352496         0.046183
 C        -0.666983         1.200375        -0.006873
 C         0.286697        -0.036976         0.048541
 O         1.468895         0.007590        -0.036847
 C        -0.697258        -1.237097         0.219690
 C        -0.106895        -2.556308         0.088228
 O        -1.691015        -0.829595        -0.824796
 H        -2.997510        -2.332427         0.709173
 H        -2.968737        -2.037238         2.346000
 H        -3.943622        -1.045008         1.294941
 H        -1.089752        -0.320311         2.180406
 H        -2.996286         0.713720        -0.229120
 H        -0.604460         1.843007        -0.941786
 H        -0.412309         1.902004         0.877789
 H         0.842234        -2.518944         0.655256
 H        -0.846024        -3.399413         0.307897
 H         0.194771        -2.515552        -0.975160
