19
Iteration:  3869charge 0 multiplicity 1
 C        -2.907886        -1.512398         1.632699
 C        -1.670349        -0.693243         1.200616
 C        -1.993983         0.431624         0.045251
 C        -0.741446         1.145702        -0.185718
 C         0.299731        -0.017798         0.096018
 O         1.464294         0.023160         0.213250
 C        -0.754115        -1.265129         0.080305
 C        -0.110695        -2.557885        -0.000630
 O        -1.693001        -0.742699        -0.932750
 H        -3.454027        -1.627118         0.705751
 H        -2.631310        -2.498546         1.926961
 H        -3.359754        -1.011824         2.454139
 H        -1.129071        -0.248543         1.986215
 H        -3.003849         0.912034        -0.117304
 H        -0.596589         1.218521        -1.271129
 H        -0.475358         2.158754         0.290122
 H         0.278410        -2.872223         0.932047
 H        -0.747755        -3.443635        -0.217492
 H         0.548547        -2.483361        -0.866972
