19
Iteration:  2782charge 0 multiplicity 1
 C        -2.896118        -1.575789         1.549143
 C        -1.698551        -0.550403         1.215926
 C        -1.969699         0.377671         0.007070
 C        -0.698781         1.186850        -0.203921
 C         0.306018         0.015878         0.060969
 O         1.502755         0.099730         0.232433
 C        -0.681265        -1.193353         0.067603
 C        -0.273481        -2.668858         0.076450
 O        -1.677914        -0.835674        -0.895367
 H        -2.831833        -2.304161         0.748990
 H        -2.742822        -2.040770         2.533257
 H        -3.778727        -0.970043         1.597885
 H        -1.117911        -0.147088         2.075143
 H        -3.033942         0.682440        -0.108193
 H        -0.540969         1.680227        -1.243051
 H        -0.435198         1.890336         0.624189
 H        -0.048848        -3.308513         0.924130
 H        -1.168249        -3.004852        -0.571698
 H         0.672558        -2.841448        -0.520599
