19
Iteration:   354charge 0 multiplicity 1
 C        -2.750335        -1.521893         1.811023
 C        -1.741674        -0.541674         1.097408
 C        -2.064121         0.228035        -0.215535
 C        -0.774582         1.180860        -0.069791
 C         0.234644         0.013993         0.026100
 O         1.411773        -0.081234         0.331645
 C        -0.674674        -1.133914         0.025989
 C        -0.081935        -2.460944         0.079112
 O        -1.656270        -0.838976        -1.082686
 H        -2.201521        -2.336486         2.282579
 H        -3.259742        -0.920207         2.537627
 H        -3.418355        -1.937308         1.042005
 H        -1.372761         0.031004         1.955731
 H        -3.132616         0.724800        -0.478427
 H        -0.626706         1.655886        -0.962554
 H        -0.701618         1.626041         0.959313
 H         0.539655        -2.485876         1.018355
 H        -0.899092        -3.172431         0.214657
 H         0.442032        -2.679516        -0.885032
