19
Iteration:  2735charge 0 multiplicity 1
 C        -2.857239        -1.661922         1.608531
 C        -1.817136        -0.610614         1.153753
 C        -1.938768         0.401541        -0.046437
 C        -0.700199         1.257405        -0.087594
 C         0.282911        -0.028010         0.017434
 O         1.479949        -0.113552         0.178158
 C        -0.754163        -1.143187         0.112204
 C        -0.146731        -2.540402         0.161474
 O        -1.678131        -0.720368        -1.005929
 H        -3.158412        -2.226974         0.733531
 H        -2.330857        -2.321833         2.294791
 H        -3.642941        -1.150830         2.153885
 H        -1.363502        -0.126764         2.036001
 H        -2.820867         0.978105        -0.362993
 H        -0.700511         1.485542        -1.139529
 H        -0.746570         2.147370         0.421947
 H         0.259457        -2.606664         1.223427
 H        -0.800092        -3.358778        -0.134171
 H         0.875582        -2.614667        -0.291526
