19
Iteration:  1488charge 0 multiplicity 1
 C        -2.962718        -1.550029         1.607014
 C        -1.739745        -0.718747         1.184368
 C        -1.970225         0.340415         0.152163
 C        -0.628476         1.195074        -0.132645
 C         0.363417         0.091825         0.004560
 O         1.545165         0.268543         0.031156
 C        -0.663731        -1.260075         0.134705
 C        -0.312536        -2.668734         0.087623
 O        -1.658239        -0.888377        -0.944344
 H        -2.774725        -2.580388         2.055676
 H        -3.470470        -1.117100         2.501715
 H        -3.691882        -1.618394         0.777762
 H        -1.220638        -0.492138         2.100338
 H        -2.796548         0.895939        -0.126114
 H        -0.651159         1.739142        -1.190007
 H        -0.542754         2.015277         0.661906
 H        -0.103169        -3.029421         1.079295
 H        -1.197036        -3.214427        -0.334067
 H         0.462432        -2.871828        -0.646451
