19
Iteration:  1996
 C        -2.817232        -1.557185         1.638471
 C        -1.674863        -0.631544         1.244347
 C        -1.962770         0.295107         0.082157
 C        -0.638878         1.189816        -0.154013
 C         0.331060         0.076251         0.051771
 O         1.499393         0.129075         0.174871
 C        -0.661012        -1.214093        -0.021739
 C        -0.306869        -2.621985        -0.102308
 O        -1.773721        -0.852606        -0.844019
 H        -3.302820        -1.242657         2.555303
 H        -3.580401        -1.388756         0.920716
 H        -2.477817        -2.588528         1.613979
 H        -1.061576        -0.301557         2.142096
 H        -3.048344         0.814218        -0.017681
 H        -0.629711         1.793557        -1.139823
 H        -0.702616         1.979004         0.606599
 H        -0.170112        -2.929391         0.949458
 H        -1.201418        -3.164357        -0.447205
 H         0.562505        -2.869558        -0.613016
