19
Iteration:  2031
 C        -2.754430        -1.543610         1.632071
 C        -1.647912        -0.660059         1.243808
 C        -1.954780         0.297521         0.124905
 C        -0.682624         1.199653        -0.074386
 C         0.253618         0.041650         0.030339
 O         1.425397         0.103357         0.106275
 C        -0.723257        -1.208602         0.089743
 C        -0.339014        -2.679035        -0.066735
 O        -1.644005        -0.734942        -0.983532
 H        -3.677832        -1.139880         2.003119
 H        -2.874735        -2.267030         0.838009
 H        -2.505377        -2.183863         2.503379
 H        -1.075631        -0.193809         2.101704
 H        -3.016691         0.860380         0.131013
 H        -0.592183         1.760161        -1.110465
 H        -0.595901         1.934391         0.761845
 H        -0.194021        -3.008381         0.941132
 H        -1.130332        -3.204300        -0.550441
 H         0.570045        -2.856448        -0.617929
