19
Iteration:  2209charge 0 multiplicity 1
 C        -2.838114        -1.602949         1.705112
 C        -1.742321        -0.672126         1.164031
 C        -2.001970         0.369657         0.059435
 C        -0.624991         1.252364        -0.066400
 C         0.200085        -0.019081         0.096347
 O         1.433468        -0.125887         0.109817
 C        -0.806132        -1.200596        -0.039793
 C        -0.028146        -2.513875         0.041504
 O        -1.715788        -0.663639        -1.003341
 H        -2.953063        -1.681436         2.788883
 H        -3.869995        -1.239645         1.523520
 H        -2.758321        -2.609015         1.307537
 H        -1.278717        -0.138350         2.045802
 H        -2.960678         0.787707        -0.119660
 H        -0.486722         1.576570        -1.057612
 H        -0.451758         2.054532         0.737222
 H         0.891070        -2.403564         0.562465
 H        -0.562842        -3.246261         0.624324
 H         0.268570        -2.868851        -0.920445
