19
Iteration:   533charge 0 multiplicity 1
 C        -2.995364        -1.673848         1.462708
 C        -1.816782        -0.596123         1.236692
 C        -1.986688         0.401347        -0.031501
 C        -0.693296         1.240982        -0.098721
 C         0.292540         0.137878         0.079807
 O         1.484059         0.011199        -0.103433
 C        -0.648454        -1.163750         0.293617
 C        -0.101691        -2.620582         0.230921
 O        -1.572553        -0.835226        -0.884839
 H        -2.848882        -2.480253         2.167384
 H        -3.891207        -1.156966         1.853584
 H        -3.369864        -2.177180         0.582317
 H        -1.567206        -0.141948         2.215308
 H        -2.957152         0.721489        -0.356309
 H        -0.655149         1.659194        -1.135380
 H        -0.551067         2.064812         0.535236
 H         0.461615        -2.984450         1.116458
 H        -1.035296        -3.205798         0.143578
 H         0.463738        -2.860256        -0.667711
