19
Iteration:  4411
 C        -2.831677        -1.578558         1.553000
 C        -1.759570        -0.590505         1.204617
 C        -1.950048         0.373554        -0.099592
 C        -0.712495         1.199123         0.059665
 C         0.259767         0.000063        -0.021022
 O         1.521603        -0.070014         0.029991
 C        -0.742152        -1.149351         0.210417
 C        -0.187525        -2.510600         0.107406
 O        -1.693358        -0.798383        -0.947035
 H        -3.122797        -2.141795         0.585179
 H        -2.691946        -2.432736         2.333438
 H        -3.856631        -0.986673         1.824456
 H        -1.348642        -0.227719         2.153676
 H        -2.963517         0.807118        -0.343448
 H        -0.461840         1.909587        -0.822954
 H        -0.448880         1.612736         1.138240
 H         0.339731        -2.767629         1.105503
 H        -0.970694        -3.293074         0.015401
 H         0.586158        -2.549237        -0.770645
