19
Iteration:  3117
 C        -2.924185        -1.470002         1.681609
 C        -1.756368        -0.655194         1.137817
 C        -2.063916         0.375436        -0.103873
 C        -0.751910         1.181100        -0.043915
 C         0.235039        -0.022307         0.017001
 O         1.476149        -0.080327         0.150700
 C        -0.724406        -1.230038         0.147611
 C        -0.011652        -2.581381         0.105758
 O        -1.565636        -0.736861        -0.996738
 H        -3.474807        -2.107549         0.984213
 H        -2.681828        -2.090588         2.534213
 H        -3.714050        -0.777241         1.987677
 H        -1.387598        -0.044535         1.967114
 H        -3.034941         0.899817        -0.483010
 H        -0.519709         1.725693        -1.036986
 H        -0.860540         1.859827         0.924771
 H         0.726873        -2.558133         0.842410
 H        -0.758090        -3.347834         0.142141
 H         0.337943        -2.700648        -0.907068
