19
Iteration:  1250
 C        -2.878260        -1.558232         1.525268
 C        -1.770049        -0.613096         1.278578
 C        -1.955191         0.353007         0.058860
 C        -0.740285         1.167794        -0.097930
 C         0.295386         0.032183         0.003397
 O         1.566367         0.000354         0.069545
 C        -0.674543        -1.186169         0.182290
 C        -0.149754        -2.564977         0.062679
 O        -1.773861        -0.777613        -0.949268
 H        -2.548420        -2.100201         2.415346
 H        -3.820644        -1.182415         1.892782
 H        -2.855704        -2.301828         0.744935
 H        -1.475881        -0.183770         2.270343
 H        -3.007396         0.914273        -0.210203
 H        -0.671778         1.651596        -1.048077
 H        -0.605945         1.841789         0.707512
 H         0.019485        -3.192857         0.948797
 H        -0.818748        -3.206867        -0.594885
 H         0.805489        -2.406732        -0.484010
