19
Iteration:  1117charge 0 multiplicity 1
 C        -2.892338        -1.652464         1.457023
 C        -1.757084        -0.664215         1.204739
 C        -2.006081         0.361639         0.059734
 C        -0.636995         1.223767        -0.093812
 C         0.291236         0.041682        -0.003150
 O         1.531398        -0.011515         0.026219
 C        -0.767999        -1.111329         0.204481
 C        -0.124889        -2.554828         0.119481
 O        -1.697560        -0.782587        -0.847231
 H        -2.788231        -2.260427         2.330658
 H        -3.758014        -1.035672         1.699511
 H        -3.204881        -2.236330         0.574450
 H        -1.323190        -0.433577         2.202480
 H        -3.021200         0.860077        -0.307752
 H        -0.489867         1.808217        -1.001338
 H        -0.751261         1.943325         0.690929
 H         0.823443        -2.555394         0.755663
 H        -0.821081        -3.309911         0.474140
 H        -0.045688        -2.843712        -0.937822
