19
Iteration:  3918charge 0 multiplicity 1
 C        -2.713973        -1.556378         1.571834
 C        -1.700032        -0.552306         1.201304
 C        -2.053918         0.326274        -0.074637
 C        -0.713151         1.253972        -0.067732
 C         0.245608        -0.011367         0.145964
 O         1.502728        -0.082343         0.202682
 C        -0.738842        -1.190292         0.072583
 C        -0.228740        -2.560778         0.032686
 O        -1.697323        -0.778925        -1.036619
 H        -2.902617        -2.475289         0.979934
 H        -2.284285        -1.974155         2.556596
 H        -3.636540        -1.055509         1.986508
 H        -1.253381         0.094491         2.078684
 H        -3.037013         0.742310        -0.152679
 H        -0.708740         1.955084        -0.927752
 H        -0.571786         1.812277         0.839831
 H         0.379402        -2.819460         0.926375
 H        -1.013992        -3.316311         0.137289
 H         0.206359        -2.733723        -0.946325
