19
Iteration:  1070charge 0 multiplicity 1
 C        -2.958119        -1.495702         1.615310
 C        -1.677671        -0.701849         1.162351
 C        -1.989542         0.319338        -0.031214
 C        -0.791763         1.249226        -0.091577
 C         0.299600         0.015562         0.165558
 O         1.469088         0.143824         0.046206
 C        -0.623045        -1.257545         0.170083
 C        -0.261723        -2.677983         0.010253
 O        -1.498149        -0.776712        -0.930948
 H        -2.859502        -2.149332         2.524936
 H        -3.794294        -0.846884         1.926931
 H        -3.406510        -2.095050         0.816655
 H        -1.145093        -0.386003         2.126729
 H        -3.024314         0.652289        -0.102135
 H        -0.733129         1.852864        -1.085963
 H        -0.687710         1.814921         0.739938
 H         0.788474        -2.745804         0.147538
 H        -0.765083        -3.362291         0.716658
 H        -0.640777        -3.054861        -0.941574
