19
Iteration:   898charge 0 multiplicity 1
 C        -2.869109        -1.570673         1.660927
 C        -1.782529        -0.698234         1.127073
 C        -1.984775         0.360542        -0.033846
 C        -0.677575         1.195135        -0.033586
 C         0.229640        -0.061807         0.105071
 O         1.418692         0.002857         0.051008
 C        -0.826289        -1.175521         0.106829
 C        -0.077891        -2.507937         0.147710
 O        -1.598528        -0.731286        -1.020357
 H        -2.557016        -2.394478         2.318842
 H        -3.508345        -0.932509         2.253916
 H        -3.392267        -2.141923         0.913931
 H        -1.144274        -0.364522         1.936859
 H        -3.029174         0.814630        -0.194335
 H        -0.551560         1.731012        -1.054813
 H        -0.430150         2.005445         0.724624
 H         0.362243        -2.808104         1.120328
 H        -0.583756        -3.433023        -0.232557
 H         0.796023        -2.358051        -0.520384
