19
Iteration:  2790
 C        -2.906604        -1.535306         1.581812
 C        -1.714786        -0.624152         1.184633
 C        -2.018859         0.337674         0.028708
 C        -0.664636         1.174403        -0.238111
 C         0.334305         0.022750         0.087539
 O         1.529072         0.141701         0.223082
 C        -0.649716        -1.166839         0.182604
 C        -0.255931        -2.733220        -0.001249
 O        -1.698260        -0.780648        -0.943139
 H        -3.196057        -2.299028         0.838646
 H        -2.751497        -2.021440         2.560411
 H        -3.857235        -0.937241         1.637513
 H        -1.160530        -0.282545         2.085818
 H        -3.035481         0.814617        -0.130753
 H        -0.575233         1.705011        -1.211760
 H        -0.467069         1.899438         0.477404
 H        -0.197703        -3.051794         1.114620
 H        -1.036116        -3.423309        -0.453461
 H         0.731417        -2.916815        -0.579599
