19
Iteration:  3181charge 0 multiplicity 1
 C        -2.880843        -1.563603         1.336112
 C        -1.767902        -0.613331         1.291190
 C        -1.985597         0.370844         0.018709
 C        -0.703580         1.156862        -0.106446
 C         0.337661         0.041762         0.015340
 O         1.512723         0.081662         0.019889
 C        -0.724961        -1.143288         0.203953
 C        -0.222780        -2.626392         0.201351
 O        -1.659044        -0.873065        -0.828775
 H        -3.290390        -1.600820         0.329212
 H        -2.529519        -2.502679         1.694296
 H        -3.695313        -1.145142         1.951376
 H        -1.643416         0.049661         2.178801
 H        -3.046984         0.875537        -0.143392
 H        -0.273737         1.710890        -0.879780
 H        -0.447517         1.860082         0.646235
 H         0.921745        -2.740327         0.332756
 H        -0.699834        -3.334845         0.904870
 H        -0.348265        -3.023615        -0.865512
