19
Iteration:  2642charge 0 multiplicity 1
 C        -3.004717        -1.591467         1.464321
 C        -1.815987        -0.631186         1.222170
 C        -2.001348         0.349780         0.029779
 C        -0.730444         1.259877        -0.150358
 C         0.330828        -0.051180         0.089127
 O         1.570918         0.085024         0.007249
 C        -0.715877        -1.227348         0.229565
 C        -0.149909        -2.616396         0.159852
 O        -1.572266        -0.733208        -0.890629
 H        -3.467603        -1.725585         0.421867
 H        -2.735324        -2.668803         1.741332
 H        -3.786141        -1.198808         2.184632
 H        -1.455444        -0.379157         2.292400
 H        -3.088850         0.648668        -0.114592
 H        -0.499478         1.560290        -1.236250
 H        -0.518968         2.133908         0.611488
 H         0.852710        -2.637775         0.527282
 H        -0.898505        -3.247803         0.742088
 H        -0.095080        -3.051264        -0.842810
