19
Iteration:  1606
 C        -2.892923        -1.495699         1.477930
 C        -1.646358        -0.626983         1.231939
 C        -2.008230         0.310072         0.063237
 C        -0.770236         1.219450         0.015554
 C         0.280578         0.011284         0.013556
 O         1.546407         0.124978         0.024129
 C        -0.570408        -1.164227         0.168665
 C        -0.296609        -2.679481         0.055647
 O        -1.657247        -0.852420        -0.923423
 H        -2.860483        -2.187359         2.386488
 H        -3.762902        -0.812692         1.695937
 H        -3.224751        -1.993396         0.537158
 H        -1.080379        -0.234931         2.181943
 H        -3.002843         0.671532         0.073050
 H        -0.729545         1.594361        -1.053742
 H        -0.842895         1.959494         0.778942
 H         0.766863        -2.844676         0.473017
 H        -0.960985        -3.361632         0.718909
 H        -0.440603        -3.080052        -0.998004
