19
Iteration:  4052charge 0 multiplicity 1
 C        -2.855662        -1.638561         1.550385
 C        -1.806380        -0.625122         1.196250
 C        -2.002823         0.356439         0.022447
 C        -0.658675         1.258730        -0.011158
 C         0.242678        -0.081907         0.075373
 O         1.502388        -0.020860        -0.038372
 C        -0.736511        -1.177372         0.144642
 C        -0.177409        -2.583481         0.168594
 O        -1.611301        -0.688131        -0.980774
 H        -3.261334        -1.944744         0.580382
 H        -2.530160        -2.317091         2.327744
 H        -3.738201        -1.160569         2.074537
 H        -1.471515        -0.239307         2.092291
 H        -2.910602         0.967532        -0.096784
 H        -0.492566         1.618661        -0.997941
 H        -0.586258         1.997564         0.781226
 H         0.321148        -2.714944         1.110890
 H        -0.863740        -3.445382         0.112886
 H         0.443683        -2.561189        -0.719065
