19
Iteration:  3780
 C        -2.940465        -1.659632         1.580792
 C        -1.762096        -0.748790         1.146952
 C        -1.941028         0.344235         0.006668
 C        -0.701903         1.302523        -0.043296
 C         0.299863         0.010936         0.017416
 O         1.474838        -0.079141        -0.011839
 C        -0.798370        -1.126432         0.156714
 C        -0.180637        -2.562461         0.153394
 O        -1.559161        -0.664287        -0.943072
 H        -2.931054        -2.526558         0.931495
 H        -2.523083        -2.028191         2.493763
 H        -3.915104        -1.224981         1.810862
 H        -1.521164        -0.248648         2.043029
 H        -2.955772         0.799708        -0.144280
 H        -0.538818         1.922132        -0.945788
 H        -0.473000         1.926983         0.882284
 H         0.612658        -2.403517         0.902660
 H        -0.959132        -3.207203         0.635423
 H         0.080320        -2.878068        -0.838922
