19
Iteration:  4795charge 0 multiplicity 1
 C        -2.827554        -1.617785         1.695376
 C        -1.769929        -0.542188         1.143466
 C        -1.969350         0.309339        -0.070128
 C        -0.689313         1.194902        -0.198327
 C         0.304746         0.096145         0.204723
 O         1.488329        -0.086507         0.255796
 C        -0.721692        -1.170558         0.152338
 C        -0.241394        -2.557841        -0.007089
 O        -1.668141        -0.756825        -1.011488
 H        -3.592533        -1.814747         0.941366
 H        -2.278679        -2.502139         1.728772
 H        -3.281234        -1.323393         2.603585
 H        -1.218233        -0.135591         1.974121
 H        -2.922690         0.792349        -0.389420
 H        -0.599581         1.403763        -1.318273
 H        -0.712800         2.136818         0.426482
 H         0.528217        -2.722631         0.714901
 H        -1.184485        -3.211482        -0.045014
 H         0.341057        -2.712349        -0.857134
