19
Iteration:  4766charge 0 multiplicity 1
 C        -2.953586        -1.508989         1.574992
 C        -1.731394        -0.611794         1.209339
 C        -1.921096         0.320163         0.021127
 C        -0.673911         1.167550        -0.143375
 C         0.245965         0.019941         0.013720
 O         1.472130         0.030997         0.225898
 C        -0.711088        -1.220989         0.149245
 C        -0.170931        -2.588622        -0.008330
 O        -1.653504        -0.784480        -0.932064
 H        -3.477323        -1.806736         0.595753
 H        -2.499050        -2.428020         2.175857
 H        -3.688972        -0.960158         2.272783
 H        -1.181258        -0.367192         2.206406
 H        -2.834339         0.806784        -0.410431
 H        -0.804664         1.738745        -1.039715
 H        -0.393627         1.953144         0.545899
 H         0.681167        -2.646490         0.682694
 H        -0.940862        -3.373224         0.220125
 H         0.261293        -2.826744        -1.021162
