19
Iteration:  4602charge 0 multiplicity 1
 C        -2.988042        -1.504945         1.521232
 C        -1.755794        -0.684081         1.227142
 C        -1.982310         0.388410         0.106630
 C        -0.657234         1.222907        -0.173117
 C         0.267052         0.039177         0.023507
 O         1.488918         0.012249         0.115362
 C        -0.690448        -1.181921         0.197302
 C        -0.118515        -2.632006         0.020197
 O        -1.631559        -0.819285        -0.876584
 H        -3.478967        -1.618445         0.558805
 H        -2.645397        -2.447864         2.049398
 H        -3.691934        -1.083118         2.247209
 H        -1.414235        -0.177394         2.114190
 H        -3.004379         0.813351        -0.184465
 H        -0.559026         1.610465        -1.197916
 H        -0.451725         2.063301         0.571162
 H         0.179414        -3.089339         0.957429
 H        -0.995158        -3.151254        -0.585430
 H         0.679166        -2.816994        -0.693426
