19
Iteration:  4094
 C        -3.118088        -1.802473         0.271658
 C        -1.926213        -0.865887         0.590005
 C        -1.722280         0.347261        -0.266958
 C        -0.864409        -0.390555        -1.263041
 C        -0.425094        -1.161970        -0.011421
 C         0.096717        -2.507511        -0.140644
 C         0.236434         0.012141         0.738317
 O         1.265789         0.145809         1.358987
 O        -0.606219         1.111616         0.531351
 H        -2.795769        -2.862618         0.455697
 H        -3.901950        -1.478748         1.085063
 H        -3.663826        -1.824570        -0.696130
 H        -2.109492        -0.707930         1.702837
 H        -2.588438         0.924640        -0.519837
 H        -1.642523        -0.955187        -1.781258
 H        -0.184747         0.185320        -1.893294
 H         0.813412        -2.534163        -1.005650
 H         0.634969        -2.918438         0.726676
 H        -0.748481        -3.174918        -0.277880
