19
Iteration:  1381
 C        -3.157798        -1.539818         0.422022
 C        -1.904910        -0.695032         0.760168
 C        -1.662885         0.404468        -0.272984
 C        -1.143026        -0.613499        -1.257616
 C        -0.496508        -1.237906         0.144638
 C         0.032232        -2.673056         0.227388
 C         0.363934        -0.017693         0.534039
 O         1.388668         0.164301         1.152396
 O        -0.516803         1.076470         0.148667
 H        -4.042441        -1.507719         1.076176
 H        -3.611686        -1.172839        -0.448704
 H        -2.806554        -2.563615         0.239909
 H        -1.892241        -0.382181         1.838519
 H        -2.549798         1.014157        -0.523017
 H        -1.813487        -1.286601        -1.740837
 H        -0.501793        -0.149986        -2.094840
 H         1.105365        -2.588585         0.033969
 H        -0.022836        -2.862853         1.382337
 H        -0.489505        -3.539814        -0.236649
