19
Iteration:  4532
 C        -3.092572        -1.852850         0.399359
 C        -1.925919        -0.834243         0.464217
 C        -1.774023         0.418245        -0.318879
 C        -0.941307        -0.317364        -1.357886
 C        -0.474649        -1.121168        -0.036313
 C         0.260024        -2.401667        -0.051312
 C         0.175766        -0.013251         0.723094
 O         1.062036        -0.104396         1.464398
 O        -0.456205         1.150477         0.497903
 H        -2.656721        -2.804879         0.668397
 H        -3.919193        -1.739934         1.057921
 H        -3.388706        -2.072412        -0.620401
 H        -1.904838        -0.582614         1.502243
 H        -2.462797         1.250785        -0.511186
 H        -1.500076        -1.017938        -2.063313
 H        -0.185112         0.287557        -1.929394
 H        -0.301128        -3.167045        -0.681563
 H         1.247151        -2.213035        -0.578551
 H         0.330401        -2.872006         0.949411
