19
Iteration:   493
 C        -2.965587        -1.521983         1.329660
 C        -1.865301        -0.613439         0.956557
 C        -1.871917         0.415148        -0.226360
 C        -1.419444        -0.589019        -1.314093
 C        -0.567426        -1.164616         0.047930
 C        -0.060570        -2.658030         0.179440
 C         0.382271        -0.042434         0.286070
 O         1.582673        -0.003688         0.470970
 O        -0.443762         1.067145         0.115418
 H        -2.528676        -2.542860         1.520893
 H        -3.364923        -1.175302         2.270544
 H        -3.731893        -1.553564         0.543230
 H        -1.348367        -0.122754         1.790288
 H        -2.515897         1.284884        -0.306407
 H        -2.072134        -1.334357        -1.830096
 H        -0.863534        -0.088874        -2.102082
 H         1.005290        -2.645952         0.387983
 H        -0.519780        -3.131034         1.010871
 H        -0.169310        -3.276999        -0.773804
