19
Iteration:  1169charge 0 multiplicity 1
 C        -3.149300        -1.578151         0.679124
 C        -1.986030        -0.668846         0.848445
 C        -1.785339         0.430242        -0.204149
 C        -1.232289        -0.555958        -1.223768
 C        -0.494459        -1.146289         0.091491
 C         0.122139        -2.581581         0.139259
 C         0.318289         0.009950         0.508706
 O         1.449728        -0.054369         0.957167
 O        -0.417314         1.084763         0.124607
 H        -2.912976        -2.481047         0.231640
 H        -3.597294        -1.865721         1.648470
 H        -3.847957        -0.987784         0.126434
 H        -1.800487        -0.361720         1.881025
 H        -2.479569         1.150844        -0.655935
 H        -1.937763        -1.353588        -1.649225
 H        -0.644389        -0.300780        -2.099813
 H         1.253598        -2.556917         0.357513
 H        -0.337248        -3.339377         0.768239
 H        -0.032981        -2.963774        -0.954471
