19
Iteration:  3978
 C        -3.149407        -1.796367         0.198502
 C        -1.959132        -0.864569         0.602180
 C        -1.726408         0.388095        -0.219366
 C        -0.898795        -0.414503        -1.263200
 C        -0.550240        -1.208357         0.012608
 C         0.100373        -2.601474        -0.116748
 C         0.270788         0.117482         0.738356
 O         1.381063         0.164891         1.264508
 O        -0.621257         1.108993         0.613100
 H        -3.409902        -2.368633         1.097210
 H        -3.958995        -1.207011        -0.139328
 H        -2.797467        -2.502761        -0.566984
 H        -1.805964        -0.741518         1.674408
 H        -2.554361         1.089777        -0.364947
 H        -1.716339        -1.012201        -1.840216
 H        -0.258267         0.222703        -1.900542
 H         1.109097        -2.487807        -0.554092
 H         0.334081        -3.094801         0.883356
 H        -0.457060        -3.378131        -0.700659
