19
Iteration:  1345
 C        -3.299833        -1.551353         0.487275
 C        -2.030503        -0.698388         0.708676
 C        -1.657180         0.364180        -0.338387
 C        -0.985397        -0.637751        -1.205305
 C        -0.506268        -1.186623         0.190838
 C         0.112181        -2.543300         0.206912
 C         0.316626        -0.025850         0.596008
 O         1.472867         0.049032         0.928904
 O        -0.588177         1.106949         0.290811
 H        -4.169379        -0.963420         0.809050
 H        -3.375677        -1.954590        -0.537462
 H        -3.313840        -2.429848         1.151300
 H        -1.899190        -0.352155         1.714189
 H        -2.340476         1.178021        -0.673962
 H        -1.690843        -1.339757        -1.757812
 H        -0.127189        -0.318371        -1.823880
 H         0.939598        -2.489231         0.997299
 H        -0.549042        -3.289233         0.619519
 H         0.667614        -2.849127        -0.733048
