19
Iteration:  2386charge 0 multiplicity 1
 C        -3.176993        -1.687482         0.356784
 C        -2.011465        -0.631706         0.301671
 C        -1.435922         0.468135        -0.654595
 C        -0.525840        -0.654652        -1.344607
 C        -0.403864        -1.191427         0.142447
 C        -0.070419        -2.768581         0.375811
 C         0.114171         0.032751         0.792061
 O         0.965714         0.247325         1.625393
 O        -0.525645         1.116156         0.161670
 H        -3.091019        -2.472618        -0.407185
 H        -3.015193        -2.295851         1.234151
 H        -4.141212        -1.243104         0.274283
 H        -2.030490        -0.204730         1.347971
 H        -2.033897         1.146878        -1.264241
 H        -1.191367        -1.346020        -1.898500
 H         0.403881        -0.326645        -1.755895
 H        -0.782039        -3.390597        -0.190449
 H         0.914026        -3.143924         0.045319
 H        -0.268682        -2.991222         1.434560
