19
Iteration:  1175
 C        -3.188520        -1.579297         0.733359
 C        -1.938680        -0.652995         0.821100
 C        -1.755169         0.401256        -0.220858
 C        -1.201598        -0.568381        -1.250764
 C        -0.498137        -1.185469         0.078606
 C         0.166433        -2.582613         0.119395
 C         0.289676        -0.000959         0.524497
 O         1.414036        -0.054955         0.947510
 O        -0.440829         1.096421         0.141983
 H        -3.096858        -2.523900         0.081463
 H        -3.759576        -1.747584         1.661070
 H        -3.943572        -0.905644         0.233278
 H        -1.664825        -0.238250         1.805981
 H        -2.443505         1.233591        -0.488183
 H        -1.903858        -1.221133        -1.712801
 H        -0.516521        -0.096755        -2.009730
 H         1.226795        -2.559991         0.179386
 H        -0.229865        -3.205254         0.988000
 H        -0.030597        -3.043308        -0.804678
