19
Iteration:  4055
 C        -3.008758        -1.790990         0.446248
 C        -1.896709        -0.791496         0.569235
 C        -1.707981         0.380940        -0.244266
 C        -1.058306        -0.349648        -1.323018
 C        -0.460878        -1.131257        -0.109695
 C         0.234617        -2.413469        -0.163213
 C         0.211654        -0.021600         0.643513
 O         1.019721        -0.076989         1.542122
 O        -0.484752         1.103567         0.411517
 H        -2.575897        -2.654168         0.957223
 H        -3.901816        -1.478099         0.866271
 H        -3.156201        -2.098893        -0.607240
 H        -1.816406        -0.325007         1.524090
 H        -2.553462         1.097884        -0.374251
 H        -1.752559        -0.979644        -1.963135
 H        -0.332210        -0.025824        -2.083432
 H         1.021610        -2.247044        -0.889439
 H         0.787640        -2.601131         0.818384
 H        -0.365499        -3.366964        -0.275987
