19
Iteration:  1907
 C        -3.180739        -1.684789         0.347000
 C        -1.930770        -0.721489         0.350305
 C        -1.566764         0.319805        -0.713151
 C        -0.621070        -0.602421        -1.437458
 C        -0.459849        -1.148447         0.033029
 C        -0.133473        -2.540503         0.535129
 C         0.225632         0.075365         0.716752
 O         1.100606         0.073250         1.594702
 O        -0.531567         1.118878         0.231467
 H        -3.460140        -1.837950        -0.697436
 H        -2.952417        -2.652827         0.849877
 H        -3.997020        -1.204760         0.831886
 H        -2.009906        -0.218159         1.342575
 H        -2.318141         1.125575        -1.028372
 H        -0.897682        -1.491229        -1.989447
 H         0.372496        -0.120053        -1.737687
 H         0.808722        -3.015877         0.166982
 H        -0.014849        -2.394585         1.701910
 H        -0.946984        -3.292874         0.403019
