19
Iteration:  1962
 C        -3.199455        -1.532559        -0.046931
 C        -2.082221        -0.658696         0.434827
 C        -1.503567         0.320310        -0.551381
 C        -0.909044        -0.796032        -1.303138
 C        -0.490762        -1.175137         0.252449
 C         0.148405        -2.510704         0.523770
 C         0.236788         0.018446         0.773466
 O         1.155220         0.163318         1.579524
 O        -0.478617         1.081855         0.175436
 H        -3.146447        -1.742135        -1.084118
 H        -3.007986        -2.529057         0.408697
 H        -4.196598        -1.312966         0.225110
 H        -2.282946        -0.264958         1.459074
 H        -2.190527         1.057964        -1.082991
 H        -1.532269        -1.553424        -1.725536
 H        -0.010075        -0.602428        -2.017504
 H         0.285638        -2.993115        -0.482794
 H         1.129816        -2.531143         1.140626
 H        -0.589208        -3.093422         1.136681
