19
Iteration:  4446
 C        -3.016823        -1.870657        -0.010858
 C        -2.026094        -0.918349         0.588583
 C        -1.756568         0.506841        -0.145186
 C        -1.019802        -0.339671        -1.211785
 C        -0.489485        -1.136911         0.076385
 C         0.187393        -2.459097         0.035271
 C         0.187555         0.009237         0.675729
 O         1.348945         0.030706         1.240394
 O        -0.605043         1.061617         0.619597
 H        -3.331071        -2.647265         0.673040
 H        -3.747640        -1.156686        -0.299580
 H        -2.750160        -2.354351        -0.997037
 H        -2.167061        -0.626218         1.667038
 H        -2.394471         1.371608        -0.483190
 H        -1.621147        -0.938298        -1.936614
 H        -0.119591         0.118677        -1.651844
 H        -0.573327        -3.231489         0.216646
 H         0.781650        -2.737637        -0.862639
 H         0.910356        -2.435418         0.877023
