19
Iteration:   838charge 0 multiplicity 1
 C        -2.964742        -1.604765         0.912131
 C        -1.858878        -0.644670         0.836521
 C        -1.769426         0.450910        -0.214082
 C        -1.253430        -0.637426        -1.215777
 C        -0.588288        -1.158467         0.099857
 C        -0.101281        -2.571672         0.185282
 C         0.361033        -0.025671         0.386809
 O         1.554770         0.005581         0.572029
 O        -0.519746         1.100037         0.283847
 H        -2.589461        -2.598374         1.323994
 H        -3.689797        -1.229162         1.616556
 H        -3.456155        -1.764872        -0.056393
 H        -1.689047        -0.316409         1.876759
 H        -2.517493         1.188153        -0.411305
 H        -2.136478        -1.264264        -1.549089
 H        -0.667666        -0.352471        -2.099281
 H        -0.733529        -3.251066        -0.439904
 H         1.013124        -2.577010        -0.004713
 H        -0.293027        -2.883365         1.176152
