19
Iteration:   463charge 0 multiplicity 1
 C        -2.981893        -1.448609         1.140745
 C        -1.743416        -0.665119         1.000160
 C        -1.765188         0.456687        -0.094877
 C        -1.463982        -0.755769        -1.045721
 C        -0.623557        -1.203030         0.099364
 C        -0.055445        -2.625096         0.062351
 C         0.331257        -0.049756         0.187535
 O         1.526833         0.058079         0.432810
 O        -0.417304         1.125190         0.091062
 H        -2.842291        -2.207693         1.903978
 H        -3.754675        -0.733001         1.606271
 H        -3.377626        -1.885539         0.220065
 H        -1.282884        -0.451232         1.996874
 H        -2.453601         1.257114        -0.185785
 H        -2.219726        -1.532592        -1.326119
 H        -0.958969        -0.641292        -2.072859
 H         0.628938        -2.696508         0.875453
 H        -0.799652        -3.397652         0.291550
 H         0.634161        -2.814174        -0.882321
