19
Iteration:  2380charge 0 multiplicity 1
 C        -3.146972        -1.699560         0.348341
 C        -1.990768        -0.645441         0.319356
 C        -1.496738         0.463084        -0.720588
 C        -0.519790        -0.652412        -1.313427
 C        -0.432031        -1.206591         0.158361
 C        -0.071447        -2.742364         0.369691
 C         0.139633         0.072406         0.785791
 O         0.961223         0.193828         1.626670
 O        -0.537364         1.113405         0.167322
 H        -3.097800        -2.389161        -0.531038
 H        -3.150648        -2.269871         1.375072
 H        -4.213835        -1.283175         0.401297
 H        -1.997898         0.045802         1.166994
 H        -1.925522         1.399704        -1.179653
 H        -1.101642        -1.399765        -1.903638
 H         0.561093        -0.480853        -1.647909
 H        -0.879556        -3.289260        -0.163064
 H         0.920252        -3.056378        -0.008403
 H        -0.000421        -2.915169         1.463101
