19
Iteration:  4662charge 0 multiplicity 1
 C        -3.078702        -1.765753        -0.046681
 C        -1.975734        -0.869396         0.512874
 C        -1.769426         0.458807        -0.167352
 C        -0.972834        -0.386041        -1.255678
 C        -0.594117        -1.166566         0.040111
 C         0.210325        -2.471129         0.194003
 C         0.249171        -0.045255         0.785533
 O         1.435393         0.079559         1.086415
 O        -0.671678         1.064504         0.707741
 H        -3.200490        -2.629244         0.600420
 H        -4.103439        -1.277480        -0.052418
 H        -2.953172        -2.053461        -1.128889
 H        -2.135500        -0.925141         1.617816
 H        -2.624684         1.139937        -0.265634
 H        -1.411564        -1.154745        -1.969231
 H        -0.193296         0.271135        -1.708928
 H        -0.474284        -3.232439        -0.209526
 H         1.120704        -2.463793        -0.435935
 H         0.618882        -2.695479         1.148735
