19
Iteration:  4376charge 0 multiplicity 1
 C        -3.088620        -1.802858         0.010356
 C        -1.990039        -0.913965         0.587324
 C        -1.782318         0.418256        -0.213531
 C        -0.936656        -0.377769        -1.257904
 C        -0.546488        -1.186324         0.086610
 C         0.158058        -2.583790         0.058380
 C         0.222115         0.051463         0.762967
 O         1.406237         0.174180         1.175903
 O        -0.611216         1.082969         0.643086
 H        -2.938712        -2.846215         0.358799
 H        -4.055420        -1.324960         0.356580
 H        -3.092557        -1.822179        -1.054883
 H        -2.079003        -0.749895         1.679168
 H        -2.523068         1.190090        -0.113571
 H        -1.549141        -0.878283        -2.064765
 H        -0.082211         0.276359        -1.659674
 H        -0.353053        -3.104320        -0.889964
 H         1.296905        -2.618823        -0.116768
 H        -0.088661        -3.154266         1.048207
