19
Iteration:  1151charge 0 multiplicity 1
 C        -3.063750        -1.700628         0.575171
 C        -1.878135        -0.603210         0.834968
 C        -1.685713         0.479092        -0.202191
 C        -1.322294        -0.687814        -1.125144
 C        -0.624408        -1.189807         0.145349
 C        -0.039403        -2.526666         0.112291
 C         0.386532        -0.025596         0.433362
 O         1.484554         0.031746         0.947090
 O        -0.411843         1.121706         0.157502
 H        -2.665104        -2.648557         0.067447
 H        -3.666629        -1.933984         1.447673
 H        -3.933955        -1.321900        -0.078293
 H        -1.695150        -0.203154         1.872903
 H        -2.345598         1.318639        -0.247743
 H        -2.195914        -1.251813        -1.528104
 H        -0.675080        -0.396994        -1.948676
 H         0.761813        -2.616400         0.862978
 H        -0.786791        -3.222692         0.448620
 H         0.466195        -2.782162        -0.826982
