19
Iteration:  1832
 C        -3.218468        -1.549466        -0.000503
 C        -2.012386        -0.727002         0.512032
 C        -1.613994         0.370706        -0.506884
 C        -0.805941        -0.697398        -1.292232
 C        -0.563931        -1.214311         0.194029
 C         0.126607        -2.479342         0.624852
 C         0.178947        -0.014174         0.725875
 O         1.221422         0.107190         1.333399
 O        -0.472547         1.068752         0.240070
 H        -2.905661        -2.563469        -0.365572
 H        -3.877795        -1.748275         0.909581
 H        -3.755447        -1.009549        -0.822923
 H        -2.125884        -0.502281         1.592871
 H        -2.242727         1.249093        -0.847884
 H        -1.469658        -1.327128        -1.885543
 H         0.024791        -0.309755        -1.975213
 H         0.892838        -2.399315         1.392849
 H        -0.570224        -3.213724         0.997325
 H         0.644546        -2.920043        -0.212042
