19
Iteration:  2211charge 0 multiplicity 1
 C        -2.980290        -1.718273        -0.028840
 C        -1.933585        -0.769946         0.487836
 C        -1.591190         0.380759        -0.492544
 C        -0.754459        -0.569605        -1.285509
 C        -0.525403        -1.206613         0.161703
 C        -0.158485        -2.597977         0.690030
 C         0.222148         0.061045         0.671951
 O         1.107920         0.133212         1.473060
 O        -0.463983         1.161208         0.141686
 H        -2.710437        -2.209988        -0.992125
 H        -3.347138        -2.505986         0.749585
 H        -3.938598        -1.173273        -0.310098
 H        -2.063582        -0.461504         1.551200
 H        -2.257104         1.099890        -1.070755
 H        -1.456030        -1.050297        -1.899449
 H         0.099422        -0.270073        -1.901484
 H        -0.416398        -3.339380        -0.000623
 H         0.892652        -2.650802         1.056797
 H        -0.761348        -2.757366         1.571294
