19
Iteration:  2925charge 0 multiplicity 1
 C        -3.190504        -1.626069        -0.098493
 C        -2.070141        -0.773016         0.505900
 C        -1.610547         0.263593        -0.435726
 C        -0.732680        -0.640594        -1.246953
 C        -0.500416        -1.183285         0.269488
 C         0.065497        -2.573726         0.482833
 C         0.221433         0.093717         0.765027
 O         1.266287         0.245046         1.397113
 O        -0.574000         1.081773         0.254714
 H        -4.200307        -1.153539         0.169937
 H        -3.186845        -1.727935        -1.190626
 H        -3.235354        -2.671992         0.299789
 H        -2.344135        -0.520347         1.545239
 H        -2.260748         0.935299        -0.916945
 H        -1.109481        -1.512649        -1.761918
 H         0.178577        -0.266220        -1.810844
 H        -0.607417        -3.283149         0.095299
 H         0.887903        -2.500397        -0.180896
 H         0.296831        -2.908476         1.470462
