19
Iteration:  1235
 C        -3.216423        -1.548054         0.730510
 C        -1.952715        -0.684021         0.747145
 C        -1.747162         0.393788        -0.272175
 C        -1.063546        -0.608231        -1.265642
 C        -0.522505        -1.210110         0.035367
 C         0.121961        -2.618204         0.152471
 C         0.349899         0.000148         0.493367
 O         1.449033         0.031961         1.002226
 O        -0.538122         1.103087         0.219862
 H        -3.589830        -1.684918        -0.230378
 H        -3.117757        -2.489978         1.242717
 H        -3.963504        -0.891098         1.134520
 H        -1.828646        -0.434351         1.775847
 H        -2.391815         1.223080        -0.529089
 H        -1.897334        -1.201509        -1.794509
 H        -0.430455        -0.147368        -2.001787
 H         0.033754        -3.009346        -0.904903
 H         1.133831        -2.658432         0.424784
 H        -0.459832        -3.233970         0.907905
