19
Iteration:  3633
 C        -3.057393        -1.772357         0.169503
 C        -1.967279        -0.841676         0.538220
 C        -1.653273         0.431917        -0.244647
 C        -0.964867        -0.340766        -1.334250
 C        -0.551119        -1.155624        -0.009551
 C         0.166331        -2.448659         0.215358
 C         0.231324         0.011047         0.649765
 O         1.242146        -0.031161         1.242777
 O        -0.589684         1.093153         0.539925
 H        -3.991584        -1.548889         0.731347
 H        -3.121508        -1.838704        -0.901529
 H        -2.696588        -2.810708         0.416999
 H        -1.965094        -0.838775         1.675329
 H        -2.510708         1.095120        -0.267240
 H        -1.744552        -0.870726        -1.909022
 H        -0.174189        -0.178535        -2.096312
 H         1.245305        -2.147829         0.234469
 H        -0.155388        -2.774667         1.188860
 H        -0.085731        -3.344013        -0.360310
