19
Iteration:   791charge 0 multiplicity 1
 C        -3.086456        -1.527839         0.937059
 C        -1.735901        -0.698253         0.908881
 C        -1.752534         0.451529        -0.097873
 C        -1.478471        -0.658839        -1.234494
 C        -0.506049        -1.195866         0.012020
 C        -0.013807        -2.607704         0.197001
 C         0.378473         0.031031         0.326033
 O         1.512962        -0.016712         0.771934
 O        -0.451365         1.126994         0.030527
 H        -2.706176        -2.523117         1.171872
 H        -3.699809        -1.210535         1.828586
 H        -3.696436        -1.468434         0.015259
 H        -1.402868        -0.409446         1.932190
 H        -2.465256         1.305774        -0.103564
 H        -2.235232        -1.420995        -1.495044
 H        -1.066875        -0.358621        -2.224974
 H         0.553860        -2.814443        -0.725741
 H         0.626854        -2.658193         1.135933
 H        -0.854281        -3.395905         0.056341
