19
Iteration:  4104charge 0 multiplicity 1
 C        -3.135414        -1.823843         0.192928
 C        -1.955213        -0.878698         0.561234
 C        -1.775748         0.421257        -0.187445
 C        -0.931069        -0.447394        -1.264545
 C        -0.503738        -1.145254         0.041358
 C         0.110518        -2.533936        -0.094769
 C         0.285142         0.057749         0.708347
 O         1.328508         0.191924         1.304643
 O        -0.600835         1.049265         0.564761
 H        -2.843546        -2.882233         0.454219
 H        -3.987340        -1.545048         0.983241
 H        -3.552330        -1.712470        -0.831861
 H        -1.747599        -0.903910         1.683548
 H        -2.383047         1.260905        -0.458462
 H        -1.134118        -1.069536        -2.135633
 H        -0.124811         0.254229        -1.677627
 H         0.859353        -2.664969        -0.903417
 H         0.509475        -2.824322         0.856203
 H        -0.688157        -3.226438        -0.308685
