19
Iteration:  3388
 C        -3.094768        -1.683594         0.134652
 C        -1.967502        -0.763894         0.574579
 C        -1.758768         0.432291        -0.372232
 C        -1.013845        -0.499489        -1.368576
 C        -0.498909        -1.171175         0.067931
 C         0.230139        -2.528969         0.291598
 C         0.225016        -0.009443         0.668140
 O         1.241491        -0.001195         1.326801
 O        -0.528960         1.104100         0.451939
 H        -3.689485        -1.320326        -0.687896
 H        -2.619503        -2.684997        -0.131202
 H        -3.768461        -1.836488         0.947056
 H        -2.113900        -0.356582         1.591616
 H        -2.470596         1.246639        -0.484071
 H        -1.507179        -1.257294        -1.878721
 H        -0.234420         0.082305        -1.929647
 H         1.289304        -2.378951         0.583596
 H        -0.247350        -2.952043         1.215264
 H         0.189473        -3.160632        -0.589861
