19
Iteration:  2207charge 0 multiplicity 1
 C        -2.975832        -1.690295        -0.035434
 C        -1.930271        -0.816098         0.500495
 C        -1.572223         0.432930        -0.460861
 C        -0.778869        -0.592359        -1.326187
 C        -0.525669        -1.186815         0.156603
 C        -0.132958        -2.590781         0.719829
 C         0.207536         0.064443         0.648901
 O         1.084044         0.139104         1.491068
 O        -0.456056         1.130951         0.140388
 H        -2.711899        -2.273423        -0.922853
 H        -3.267692        -2.421269         0.653591
 H        -3.913417        -1.174690        -0.260846
 H        -2.086760        -0.399262         1.512065
 H        -2.218622         1.172808        -1.012259
 H        -1.528342        -1.063174        -2.025198
 H         0.122816        -0.371688        -1.939254
 H        -0.423857        -3.410173        -0.007384
 H         0.974148        -2.606532         0.943232
 H        -0.806424        -2.880751         1.563260
