19
Iteration:  3340charge 0 multiplicity 1
 C        -3.072032        -1.699553         0.285432
 C        -1.925330        -0.765457         0.562794
 C        -1.723006         0.409165        -0.380312
 C        -0.885300        -0.485269        -1.280996
 C        -0.478997        -1.197945        -0.025180
 C         0.176966        -2.600988         0.113235
 C         0.224721         0.041098         0.699459
 O         1.035661         0.033812         1.590160
 O        -0.458176         1.146323         0.249923
 H        -4.099485        -1.303353         0.461527
 H        -2.966502        -2.160346        -0.666995
 H        -3.116972        -2.432566         1.141802
 H        -2.002823        -0.373851         1.588756
 H        -2.431458         1.128312        -0.870428
 H        -1.671723        -1.090494        -1.931288
 H        -0.245583        -0.048055        -2.060652
 H         1.117587        -2.470207        -0.511418
 H         0.515148        -2.824805         1.241906
 H        -0.458162        -3.379065        -0.472704
