19
Iteration:  1289
 C        -3.131024        -1.696021         0.511822
 C        -1.908895        -0.711463         0.717467
 C        -1.785636         0.412911        -0.289231
 C        -1.171804        -0.530163        -1.308335
 C        -0.565923        -1.160401         0.099643
 C        -0.047625        -2.580046         0.340704
 C         0.385229         0.010143         0.448821
 O         1.467223         0.035203         0.979701
 O        -0.407372         1.154185         0.304489
 H        -3.733750        -1.420168        -0.303274
 H        -2.670715        -2.654872         0.169443
 H        -3.611610        -1.879382         1.459471
 H        -1.808798        -0.534657         1.760050
 H        -2.446535         1.249682        -0.429088
 H        -1.922550        -1.321530        -1.690049
 H        -0.562009        -0.236189        -2.144869
 H        -0.849908        -3.148931         0.911285
 H         0.231638        -3.052066        -0.545197
 H         0.824342        -2.626410         1.044998
