19
Iteration:  4251
 C        -3.058262        -1.853248         0.314790
 C        -1.911092        -0.842165         0.640604
 C        -1.745482         0.426685        -0.214625
 C        -1.004761        -0.373415        -1.263050
 C        -0.555393        -1.177945        -0.051022
 C         0.225614        -2.571524        -0.163811
 C         0.214029         0.059305         0.709341
 O         1.185728         0.096222         1.411845
 O        -0.496513         1.121451         0.453752
 H        -3.132280        -2.703250         1.049718
 H        -3.969939        -1.236112         0.433649
 H        -2.952910        -2.220074        -0.783836
 H        -1.917216        -0.547583         1.711007
 H        -2.470782         1.218841        -0.552837
 H        -1.737116        -0.937706        -1.924533
 H        -0.248842         0.077205        -1.854662
 H         1.153366        -2.583150        -0.748187
 H         0.459904        -2.924087         0.909405
 H        -0.502045        -3.296865        -0.697928
