19
Iteration:  4606charge 0 multiplicity 1
 C        -3.128240        -1.800138         0.103375
 C        -1.973799        -0.935482         0.549991
 C        -1.718057         0.384258        -0.223343
 C        -0.862726        -0.287345        -1.225045
 C        -0.459891        -1.147762         0.113051
 C         0.094628        -2.566230         0.034757
 C         0.238341         0.040254         0.785257
 O         1.352734         0.211187         1.194057
 O        -0.629269         0.999413         0.562026
 H        -3.249700        -2.740952         0.682965
 H        -4.096866        -1.182915         0.141781
 H        -3.133997        -2.201045        -0.932671
 H        -2.002189        -0.818376         1.663040
 H        -2.524177         1.115146        -0.387622
 H        -1.579430        -0.922237        -1.798753
 H        -0.107045         0.304758        -1.765908
 H        -0.258947        -2.927083        -0.967238
 H         1.177203        -2.659683        -0.037209
 H        -0.391464        -3.244791         0.705885
