19
Iteration:  4763charge 0 multiplicity 1
 C        -3.118758        -1.817369         0.441680
 C        -1.906024        -0.879165         0.621421
 C        -1.730889         0.440991        -0.388719
 C        -0.916408        -0.362259        -1.379742
 C        -0.467602        -1.179231        -0.072503
 C         0.199254        -2.490213        -0.215726
 C         0.254233        -0.067558         0.764746
 O         1.125552         0.044769         1.616129
 O        -0.580556         1.157158         0.448735
 H        -2.964232        -2.732861         1.031363
 H        -4.035185        -1.420962         0.735953
 H        -3.093839        -2.105148        -0.619511
 H        -1.839082        -0.702751         1.668315
 H        -2.360043         1.245129        -0.811817
 H        -1.437161        -0.743848        -2.283745
 H        -0.153257         0.307590        -1.878778
 H        -0.435346        -3.092714        -0.849684
 H         1.055619        -2.218607        -0.856467
 H         0.456569        -3.170606         0.639084
