19
Iteration:  3152charge 0 multiplicity 1
 C        -3.046403        -1.763340         0.067035
 C        -2.026960        -0.728696         0.550878
 C        -1.609614         0.394691        -0.382288
 C        -0.824627        -0.577010        -1.316985
 C        -0.524631        -1.136205         0.092069
 C        -0.014145        -2.567377         0.244697
 C         0.244315         0.015242         0.747057
 O         1.169919         0.192073         1.442285
 O        -0.517833         1.090347         0.386604
 H        -3.329794        -2.429743         0.853954
 H        -3.888838        -1.332789        -0.419449
 H        -2.558927        -2.490688        -0.549806
 H        -2.204323        -0.494589         1.602434
 H        -2.246342         1.074543        -0.869873
 H        -1.327953        -1.192966        -2.020319
 H         0.063629        -0.133339        -1.725835
 H        -0.875249        -3.323716         0.355562
 H         0.608165        -2.798732        -0.666200
 H         0.634554        -2.696402         1.203712
