19
Iteration:   536
 C        -2.971312        -1.546984         1.215404
 C        -1.717531        -0.586087         0.965183
 C        -1.844173         0.462896        -0.221234
 C        -1.478570        -0.661605        -1.208182
 C        -0.602692        -1.186314        -0.007469
 C        -0.005108        -2.606196         0.199217
 C         0.357922        -0.004476         0.238197
 O         1.546225        -0.058498         0.591008
 O        -0.440318         1.123544         0.084842
 H        -2.644204        -2.615037         1.055317
 H        -3.466540        -1.536297         2.170180
 H        -3.722000        -1.382074         0.434966
 H        -1.416365        -0.060925         1.907271
 H        -2.552722         1.256535        -0.417557
 H        -2.178848        -1.463480        -1.473794
 H        -1.125322        -0.384536        -2.138689
 H         0.471591        -2.956725        -0.741900
 H         0.669032        -2.720840         1.011750
 H        -0.889160        -3.292100         0.214319
