19
Iteration:  4163
 C        -3.074729        -1.854590        -0.017561
 C        -2.054878        -0.901993         0.638152
 C        -1.727676         0.396933        -0.063601
 C        -0.947322        -0.261780        -1.245557
 C        -0.594547        -1.134390         0.057608
 C         0.184090        -2.383397         0.217878
 C         0.276406        -0.023606         0.654054
 O         1.455879        -0.002269         0.904517
 O        -0.697399         1.073779         0.715314
 H        -3.284166        -2.774241         0.573136
 H        -4.061160        -1.397712        -0.209380
 H        -2.703735        -2.336295        -0.984702
 H        -1.899001        -0.786601         1.711818
 H        -2.439335         1.158566        -0.491738
 H        -1.658658        -0.791542        -1.880653
 H        -0.205501         0.362921        -1.599414
 H         1.264834        -2.213206         0.346291
 H        -0.052829        -2.850820         1.293708
 H        -0.146730        -3.223315        -0.518520
