19
Iteration:  3095
 C        -3.152185        -1.606689         0.278993
 C        -1.898853        -0.755735         0.499009
 C        -1.555222         0.452503        -0.542765
 C        -0.828220        -0.552198        -1.414627
 C        -0.457232        -1.134465        -0.003759
 C         0.244462        -2.482523         0.295040
 C         0.204636        -0.054905         0.692886
 O         0.944106         0.001433         1.616359
 O        -0.591688         1.020216         0.310214
 H        -2.970254        -2.630947         0.386572
 H        -3.865747        -1.413371         1.108643
 H        -3.690085        -1.367795        -0.602618
 H        -1.823251        -0.342365         1.555719
 H        -2.282220         1.195076        -1.079158
 H        -1.506021        -1.254556        -1.854659
 H        -0.012367        -0.321055        -2.149914
 H        -0.353103        -3.492536         0.336487
 H         1.069747        -2.577297        -0.404570
 H         0.781692        -2.199286         1.272756
