19
Iteration:    44
 C        -2.727728        -1.600186         1.617745
 C        -1.666371        -0.613300         1.146624
 C        -1.844696         0.503490         0.086928
 C        -1.571496        -0.518348        -1.124877
 C        -0.663061        -1.150994        -0.036542
 C        -0.151242        -2.548300        -0.086031
 C         0.357205        -0.087414         0.047133
 O         1.545997        -0.114479         0.057760
 O        -0.458366         1.047300         0.140914
 H        -2.826474        -1.508024         2.672564
 H        -3.746964        -1.416047         1.328278
 H        -2.593373        -2.650833         1.475605
 H        -1.105574        -0.252393         2.026532
 H        -2.546308         1.336701         0.046593
 H        -2.452655        -1.081756        -1.384647
 H        -0.983362        -0.093867        -1.902084
 H         0.958279        -2.636520        -0.290548
 H        -0.448241        -3.024526         0.845752
 H        -0.749137        -3.084382        -0.820740
