19
Iteration:  4119
 C        -3.109459        -1.821846         0.122474
 C        -1.982832        -0.936864         0.674449
 C        -1.718209         0.478419        -0.177269
 C        -0.923256        -0.313239        -1.262411
 C        -0.506478        -1.202155         0.024010
 C         0.112391        -2.566778         0.032574
 C         0.291863        -0.012240         0.711982
 O         1.388683         0.204538         1.173655
 O        -0.669214         1.042765         0.574232
 H        -2.931252        -2.891337         0.180701
 H        -4.080931        -1.575166         0.471445
 H        -3.140091        -1.671609        -0.974794
 H        -2.232474        -0.680418         1.690977
 H        -2.572655         1.176840        -0.254183
 H        -1.657123        -0.841378        -1.880221
 H        -0.142280         0.142181        -1.791729
 H         1.026334        -2.449842        -0.588932
 H         0.502575        -2.930178         1.055945
 H        -0.562651        -3.396988        -0.329039
