19
Iteration:  1063
 C        -3.246648        -1.521835         0.727373
 C        -1.973656        -0.617607         0.883896
 C        -1.757313         0.441424        -0.237176
 C        -1.218444        -0.604125        -1.268112
 C        -0.586974        -1.230059         0.154424
 C         0.227032        -2.598125         0.153378
 C         0.343523        -0.028246         0.454088
 O         1.532194        -0.021952         0.709209
 O        -0.498733         1.072969         0.319863
 H        -2.923694        -2.584450         0.881790
 H        -4.070844        -1.128432         1.339412
 H        -3.626801        -1.437628        -0.343396
 H        -1.737023        -0.325066         1.948269
 H        -2.417591         1.262512        -0.440164
 H        -2.003236        -1.377718        -1.499314
 H        -0.677718        -0.265654        -2.121762
 H        -0.385846        -3.382478        -0.309165
 H         1.059694        -2.406990        -0.491177
 H         0.494830        -2.931711         1.183222
