19
Iteration:  2411charge 0 multiplicity 1
 C        -3.131596        -1.614061         0.208334
 C        -1.897049        -0.728975         0.414652
 C        -1.580893         0.345723        -0.626985
 C        -0.674794        -0.714822        -1.402982
 C        -0.505338        -1.169078         0.127411
 C        -0.098511        -2.610260         0.413547
 C         0.248454         0.093929         0.766794
 O         1.030510         0.268763         1.692298
 O        -0.481879         1.025632         0.176978
 H        -2.985544        -2.224649        -0.737232
 H        -3.288561        -2.506986         0.937601
 H        -3.987256        -0.936537        -0.031751
 H        -1.967220        -0.262364         1.448657
 H        -2.177438         1.139152        -1.038049
 H        -1.262076        -1.426514        -2.037635
 H         0.283759        -0.405745        -1.759707
 H        -0.352586        -3.425543        -0.308400
 H         0.919570        -2.661600         0.513459
 H        -0.599998        -2.882461         1.347946
