19
Iteration:   587charge 0 multiplicity 1
 C        -3.191987        -1.447566         1.087199
 C        -1.846381        -0.697574         1.020513
 C        -1.798764         0.394918        -0.062442
 C        -1.387420        -0.608338        -1.119833
 C        -0.549700        -1.271662         0.102614
 C         0.065799        -2.730983         0.107753
 C         0.393193         0.019278         0.250271
 O         1.583756         0.070507         0.530084
 O        -0.414367         1.123340        -0.010093
 H        -3.033830        -2.494657         1.475061
 H        -3.724795        -0.979759         1.911324
 H        -3.788806        -1.532329         0.166470
 H        -1.822284        -0.379126         2.048684
 H        -2.603532         1.166496        -0.205142
 H        -2.161776        -1.267975        -1.617088
 H        -0.842628        -0.095435        -1.984749
 H        -0.623133        -3.460031        -0.488973
 H         1.135330        -2.533395        -0.326435
 H         0.244288        -3.083744         1.074396
