19
Iteration:  4777charge 0 multiplicity 1
 C        -3.080617        -1.813893         0.390772
 C        -1.906769        -0.870494         0.671825
 C        -1.713355         0.477196        -0.291751
 C        -0.891905        -0.354163        -1.364110
 C        -0.425523        -1.091136        -0.079223
 C         0.239349        -2.506770        -0.210974
 C         0.214732         0.082555         0.661325
 O         1.057570        -0.051380         1.550576
 O        -0.595798         1.067956         0.436586
 H        -3.143725        -2.687715         1.028809
 H        -4.023961        -1.274422         0.505298
 H        -3.186532        -2.119313        -0.609331
 H        -1.829128        -0.512317         1.682758
 H        -2.534586         1.220912        -0.306619
 H        -1.450340        -1.115203        -1.925795
 H        -0.036349         0.127485        -1.888599
 H        -0.370067        -3.169907        -0.907949
 H         1.314527        -2.536045        -0.489725
 H         0.320247        -2.939948         0.839353
