19
Iteration:  3359charge 0 multiplicity 1
 C        -3.105192        -1.763892         0.212663
 C        -1.906421        -0.828241         0.629630
 C        -1.604952         0.483881        -0.324109
 C        -1.052791        -0.533259        -1.349544
 C        -0.498587        -1.123291         0.029216
 C         0.252572        -2.445626         0.198651
 C         0.230025        -0.015639         0.654630
 O         1.055909        -0.044580         1.510029
 O        -0.462928         1.174253         0.246765
 H        -4.047569        -1.216570        -0.165017
 H        -2.807724        -2.414038        -0.604420
 H        -3.592469        -2.264858         1.093487
 H        -2.037631        -0.556095         1.736303
 H        -2.287239         1.320633        -0.368183
 H        -1.652065        -1.175708        -2.111918
 H        -0.262144        -0.218909        -2.041489
 H         1.331777        -2.457807         0.095303
 H        -0.009386        -2.822805         1.158976
 H        -0.213277        -3.215729        -0.464491
