19
Iteration:  2020
 C        -3.194439        -1.602950         0.033505
 C        -2.082193        -0.731960         0.314584
 C        -1.564265         0.353216        -0.617037
 C        -0.592009        -0.640081        -1.333370
 C        -0.447506        -1.185446         0.203217
 C        -0.004218        -2.615527         0.601862
 C         0.202673        -0.016908         0.793042
 O         1.237977         0.206523         1.390824
 O        -0.641115         1.102834         0.400969
 H        -3.170805        -2.188057        -0.914833
 H        -3.445584        -2.233898         0.902224
 H        -4.054817        -0.869328        -0.212895
 H        -2.258919        -0.328319         1.324238
 H        -2.155020         1.015478        -1.195734
 H        -1.103693        -1.344836        -2.074778
 H         0.425200        -0.366088        -1.653044
 H        -0.521103        -3.456419         0.026530
 H         1.042362        -2.787547         0.593893
 H        -0.437334        -2.769913         1.636779
