19
Iteration:  4514charge 0 multiplicity 1
 C        -3.057564        -1.797857         0.364338
 C        -1.907654        -0.850741         0.577329
 C        -1.676457         0.504743        -0.334521
 C        -0.899419        -0.348695        -1.355953
 C        -0.460151        -1.139574        -0.103883
 C         0.247162        -2.495537        -0.151578
 C         0.226168        -0.009603         0.802280
 O         1.157458        -0.058809         1.527949
 O        -0.717822         1.097668         0.451689
 H        -2.864189        -2.795785         0.832428
 H        -3.886316        -1.249102         0.851217
 H        -3.513146        -1.953238        -0.678826
 H        -1.924505        -0.561827         1.704056
 H        -2.438206         1.250328        -0.624121
 H        -1.608993        -0.936833        -1.884843
 H        -0.103026         0.127586        -1.919833
 H        -0.410400        -3.272430        -0.452141
 H         1.071586        -2.503400        -0.865698
 H         0.657606        -2.743869         0.845320
