19
Iteration:  3883charge 0 multiplicity 1
 C        -3.107023        -1.928964         0.029427
 C        -2.001132        -0.849943         0.668519
 C        -1.830108         0.504211        -0.164432
 C        -0.972317        -0.222770        -1.293142
 C        -0.564632        -1.116648         0.021157
 C         0.231955        -2.434631         0.156565
 C         0.301047        -0.032555         0.596385
 O         1.390904        -0.042835         1.199923
 O        -0.613023         1.031594         0.576169
 H        -2.791333        -2.974385        -0.226594
 H        -3.742654        -1.900769         0.939743
 H        -3.776102        -1.383923        -0.727598
 H        -1.976252        -0.676530         1.761630
 H        -2.619619         1.285540        -0.295409
 H        -1.585534        -0.877749        -1.854382
 H        -0.162969         0.326122        -1.712787
 H         1.298446        -2.302337        -0.161272
 H         0.232615        -2.798226         1.188929
 H        -0.328514        -3.207918        -0.453198
