19
Iteration:  2349charge 0 multiplicity 1
 C        -3.131793        -1.649111         0.143353
 C        -2.015683        -0.623455         0.414118
 C        -1.504466         0.355223        -0.614063
 C        -0.659574        -0.700360        -1.351956
 C        -0.489484        -1.167067         0.141803
 C         0.018881        -2.461157         0.498461
 C         0.113688         0.011292         0.820522
 O         1.017910         0.065679         1.629830
 O        -0.482287         1.064685         0.116342
 H        -3.007491        -2.098433        -0.818374
 H        -3.008360        -2.383128         0.901933
 H        -4.183358        -1.327701         0.227046
 H        -2.173038        -0.064502         1.351105
 H        -2.138751         1.216254        -1.024401
 H        -1.182748        -1.437906        -1.936061
 H         0.252638        -0.479652        -2.007964
 H        -0.803347        -3.186627         0.529982
 H         0.878679        -2.753831        -0.235413
 H         0.496949        -2.415235         1.496212
