19
Iteration:  1817
 C        -3.233635        -1.547256         0.051387
 C        -2.032975        -0.715468         0.433602
 C        -1.537582         0.433134        -0.477579
 C        -0.825647        -0.652052        -1.325401
 C        -0.543460        -1.309334         0.075906
 C         0.158346        -2.598107         0.729885
 C         0.254293         0.027960         0.645507
 O         1.275474         0.063593         1.288464
 O        -0.627564         1.142335         0.358442
 H        -3.046510        -2.608414        -0.156597
 H        -3.994502        -1.468061         0.764656
 H        -3.683185        -1.193232        -0.829006
 H        -2.156057        -0.202888         1.397948
 H        -2.230867         0.970930        -1.051898
 H        -1.542717        -1.239118        -2.004482
 H         0.089434        -0.374765        -1.758538
 H         0.446090        -2.069180         1.643880
 H        -0.522030        -3.550412         0.918951
 H         1.088154        -2.887823         0.168806
