19
Iteration:  2557charge 0 multiplicity 1
 C        -3.068368        -1.767449         0.022743
 C        -2.023167        -0.697384         0.439880
 C        -1.531974         0.427804        -0.560558
 C        -0.777308        -0.664871        -1.208812
 C        -0.554823        -1.171725         0.225388
 C        -0.034714        -2.583824         0.541299
 C         0.148322         0.088987         0.754497
 O         1.112390         0.124696         1.462150
 O        -0.413333         1.169161         0.181647
 H        -2.731427        -2.463252        -0.804267
 H        -3.475968        -2.298264         0.897461
 H        -4.050494        -1.366443        -0.437898
 H        -2.187429        -0.398405         1.452438
 H        -2.091140         1.095642        -1.190785
 H        -1.318532        -1.312632        -1.885678
 H         0.097127        -0.403426        -1.838148
 H        -0.784040        -3.274543         0.507166
 H         0.865255        -2.835654        -0.068726
 H         0.282218        -2.674293         1.544746
