19
Iteration:  4952charge 0 multiplicity 1
 C        -3.034876        -1.863027         0.231600
 C        -2.005399        -0.806324         0.632957
 C        -1.663235         0.489166        -0.293992
 C        -1.000270        -0.310267        -1.315466
 C        -0.498648        -1.117885        -0.053545
 C         0.294757        -2.418196         0.012435
 C         0.181009        -0.079289         0.737957
 O         1.192409        -0.063929         1.353405
 O        -0.606959         1.075735         0.525036
 H        -3.235384        -2.762734         0.785556
 H        -3.993159        -1.354003         0.314342
 H        -2.974150        -2.079647        -0.799539
 H        -2.035604        -0.462194         1.651421
 H        -2.285419         1.330630        -0.609186
 H        -1.632472        -1.024429        -1.923837
 H        -0.143762         0.094285        -1.917794
 H        -0.248183        -3.219475        -0.564773
 H         1.315269        -2.316127        -0.401347
 H         0.267007        -2.790083         1.044750
