19
Iteration:  4904charge 0 multiplicity 1
 C        -3.172397        -1.788967        -0.065515
 C        -2.000722        -0.960877         0.575294
 C        -1.676258         0.412728        -0.156440
 C        -0.922252        -0.277433        -1.247079
 C        -0.488635        -1.170828         0.129626
 C         0.086079        -2.594428         0.199265
 C         0.238005         0.080670         0.742245
 O         1.419871         0.209681         1.093242
 O        -0.614238         1.003127         0.638594
 H        -3.166176        -2.902845         0.270969
 H        -4.289130        -1.716719         0.075021
 H        -2.991095        -1.923569        -1.217441
 H        -1.986479        -0.919645         1.758983
 H        -2.371960         1.220717        -0.431528
 H        -1.677410        -0.634276        -1.962211
 H        -0.152012         0.272777        -1.837051
 H        -0.695778        -3.248940        -0.123947
 H         0.887800        -2.730265        -0.512723
 H         0.477954        -2.888059         1.200134
