19
Iteration:  3961charge 0 multiplicity 1
 C        -3.180181        -1.813445         0.105602
 C        -1.963795        -0.973075         0.578007
 C        -1.660751         0.484978        -0.081361
 C        -0.910145        -0.384987        -1.190450
 C        -0.430645        -1.184945         0.119425
 C         0.093617        -2.619433        -0.036651
 C         0.253067        -0.033300         0.704800
 O         1.373845         0.281369         1.095050
 O        -0.654991         1.094940         0.617763
 H        -3.523799        -2.586878         0.828112
 H        -4.079504        -1.121195        -0.106443
 H        -3.125463        -2.418812        -0.840558
 H        -2.126432        -0.740267         1.667616
 H        -2.430087         1.230050        -0.387841
 H        -1.369399        -0.839008        -2.006325
 H         0.022852        -0.007066        -1.676493
 H         1.057053        -2.635217        -0.614973
 H         0.143892        -3.163951         0.882349
 H        -0.792546        -3.101804        -0.485131
