19
Iteration:  4024
 C        -3.019602        -1.852063         0.395589
 C        -1.857638        -0.894631         0.657031
 C        -1.730564         0.512553        -0.267821
 C        -1.149954        -0.354998        -1.313050
 C        -0.502754        -1.158900        -0.145163
 C         0.290934        -2.444668        -0.095009
 C         0.222957        -0.025782         0.651065
 O         1.061912        -0.156442         1.489884
 O        -0.473961         1.267312         0.395075
 H        -3.078215        -2.512518         1.293151
 H        -3.901655        -1.213125         0.191509
 H        -2.798418        -2.525104        -0.477375
 H        -1.904871        -0.637325         1.708297
 H        -2.540650         1.238755        -0.582504
 H        -1.923111        -0.905973        -1.934032
 H        -0.193159         0.012244        -1.843795
 H         1.214512        -2.283683        -0.521362
 H         0.526006        -2.619829         0.941070
 H        -0.168157        -3.367178        -0.473019
