19
Iteration:   924
 C        -3.178031        -1.520583         0.778887
 C        -1.732152        -0.762486         0.866146
 C        -1.764799         0.473411        -0.135608
 C        -1.399591        -0.672134        -1.159350
 C        -0.497202        -1.196243         0.008154
 C         0.063624        -2.534101         0.158430
 C         0.354174         0.001478         0.341076
 O         1.499777        -0.023117         0.730451
 O        -0.456347         1.145329         0.253119
 H        -3.524032        -1.882640         1.781293
 H        -3.865600        -0.880283         0.288316
 H        -3.249615        -2.473638         0.224317
 H        -1.319407        -0.620823         1.862490
 H        -2.533877         1.186998        -0.339709
 H        -2.320237        -1.311871        -1.279929
 H        -1.096199        -0.355326        -2.155836
 H         0.594225        -2.641563         1.124671
 H        -0.672242        -3.410916         0.026845
 H         0.843338        -2.697015        -0.541710
