19
Iteration:   338charge 0 multiplicity 1
 C        -2.907548        -1.540918         1.162548
 C        -1.699096        -0.612391         1.097088
 C        -1.790810         0.446235         0.014381
 C        -1.556679        -0.664872        -1.020743
 C        -0.583631        -1.181840         0.048605
 C        -0.158704        -2.658222         0.085813
 C         0.382243        -0.011922         0.120503
 O         1.564941         0.034398         0.298850
 O        -0.384873         1.092599         0.061569
 H        -3.868039        -1.102935         0.793538
 H        -2.723112        -2.538173         0.765388
 H        -3.068083        -1.692352         2.248447
 H        -1.405668        -0.224804         2.098048
 H        -2.559990         1.292066        -0.002945
 H        -2.432648        -1.331934        -1.064136
 H        -1.146887        -0.271036        -1.935940
 H        -0.477510        -3.142553        -0.879957
 H         0.917023        -2.823297         0.248714
 H        -0.638081        -3.169862         0.860146
