19
Iteration:  1626
 C        -3.156789        -1.575076         0.253833
 C        -1.951475        -0.701324         0.617647
 C        -1.623401         0.390975        -0.368674
 C        -0.912043        -0.616275        -1.233552
 C        -0.546331        -1.243282         0.172241
 C         0.013419        -2.602331         0.313471
 C         0.287827         0.011614         0.605362
 O         1.230798         0.214028         1.309501
 O        -0.464182         1.019533         0.192976
 H        -3.251189        -1.378954        -0.766254
 H        -3.116323        -2.690069         0.284333
 H        -4.088965        -1.360918         0.761639
 H        -1.886722        -0.487129         1.704551
 H        -2.405312         1.069928        -0.857564
 H        -1.616183        -1.274149        -1.765159
 H        -0.021015        -0.306617        -1.822648
 H         0.481112        -3.016259        -0.652921
 H         0.814841        -2.640564         1.091348
 H        -0.819868        -3.279847         0.703759
