19
Iteration:  4627
 C        -3.156382        -1.767283         0.041677
 C        -2.017686        -0.905240         0.560230
 C        -1.711819         0.456013        -0.180925
 C        -0.804260        -0.401687        -1.197728
 C        -0.565093        -1.254820         0.074409
 C         0.161764        -2.608038         0.037464
 C         0.261610        -0.020230         0.768152
 O         1.421066         0.210920         1.069925
 O        -0.751122         1.138782         0.706310
 H        -3.246863        -2.658701         0.748506
 H        -4.201850        -1.207639        -0.031161
 H        -2.948821        -2.310135        -0.911645
 H        -2.069041        -0.618876         1.694778
 H        -2.495503         1.188364        -0.422319
 H        -1.068930        -1.002723        -2.098477
 H         0.042680         0.247330        -1.435150
 H        -0.206997        -3.253134        -0.793960
 H         1.176172        -2.408518        -0.243919
 H        -0.034279        -3.210930         0.891980
