19
Iteration:  2777
 C        -3.161736        -1.570245        -0.116506
 C        -2.006346        -0.795067         0.541280
 C        -1.544654         0.327527        -0.439047
 C        -0.686686        -0.717349        -1.200420
 C        -0.516420        -1.290524         0.268955
 C         0.040589        -2.582188         0.521694
 C         0.202696         0.015878         0.782477
 O         1.205998         0.358863         1.365285
 O        -0.611256         1.082510         0.187886
 H        -2.832201        -2.533636        -0.553219
 H        -4.013402        -1.832967         0.587439
 H        -3.638679        -0.973592        -0.951431
 H        -2.335787        -0.322013         1.439407
 H        -2.219634         0.963530        -1.047229
 H        -1.278578        -1.468425        -1.780636
 H         0.232118        -0.453254        -1.600682
 H        -0.620653        -3.266600        -0.020669
 H         1.059968        -2.772327         0.234221
 H        -0.111227        -2.711930         1.591795
