19
Iteration:  4338charge 0 multiplicity 1
 C        -3.079588        -1.768249         0.198523
 C        -1.877295        -0.838544         0.610255
 C        -1.804114         0.405151        -0.225954
 C        -0.972019        -0.431789        -1.309717
 C        -0.491550        -1.152345        -0.002396
 C         0.188709        -2.511648        -0.067373
 C         0.178648         0.039221         0.776949
 O         1.281669         0.108967         1.401612
 O        -0.554128         1.064617         0.480516
 H        -2.799828        -2.843343         0.253606
 H        -3.952241        -1.768476         0.854900
 H        -3.578879        -1.535342        -0.812702
 H        -1.895716        -0.632879         1.704104
 H        -2.630777         1.159441        -0.420709
 H        -1.488399        -1.028962        -2.036289
 H        -0.246510         0.012710        -1.916704
 H         0.024410        -2.770671        -1.066347
 H         1.222960        -2.583663         0.219351
 H        -0.320726        -3.344795         0.404137
