19
Iteration:  3509charge 0 multiplicity 1
 C        -3.134248        -1.757452         0.129715
 C        -1.975697        -0.807021         0.606090
 C        -1.732836         0.454536        -0.235033
 C        -0.957464        -0.413884        -1.363571
 C        -0.548831        -1.162928         0.050909
 C         0.298595        -2.487313         0.199775
 C         0.187750        -0.010723         0.682087
 O         1.192867        -0.040742         1.318499
 O        -0.513641         1.129391         0.425598
 H        -2.790494        -2.727461         0.518767
 H        -4.082273        -1.425305         0.602486
 H        -3.304910        -1.849580        -0.953285
 H        -2.173091        -0.726581         1.704597
 H        -2.437737         1.251485        -0.496474
 H        -1.581387        -1.024028        -2.111816
 H        -0.078007         0.076768        -1.758489
 H         1.118066        -2.666626        -0.562130
 H         0.894616        -2.373825         1.221207
 H        -0.397776        -3.397478         0.140800
