19
Iteration:  3662
 C        -3.193836        -1.769329         0.090584
 C        -2.032062        -0.850901         0.532767
 C        -1.809937         0.409030        -0.244519
 C        -0.863985        -0.338862        -1.258128
 C        -0.503459        -1.159002         0.128644
 C         0.181766        -2.607571         0.216803
 C         0.236867         0.012525         0.742656
 O         1.432720         0.102910         1.050915
 O        -0.627800         1.085801         0.593401
 H        -4.109751        -1.167432        -0.112647
 H        -3.064317        -2.199606        -0.902477
 H        -3.310848        -2.518895         0.869012
 H        -2.173469        -0.800746         1.619261
 H        -2.623271         1.135466        -0.233360
 H        -1.163267        -1.003370        -2.123433
 H        -0.025685         0.169765        -1.649321
 H         1.275818        -2.406604         0.201664
 H        -0.059606        -3.028307         1.263546
 H        -0.121053        -3.209329        -0.697070
