19
Iteration:  2625
 C        -3.292313        -1.495809         0.229462
 C        -1.978971        -0.723026         0.459908
 C        -1.492426         0.336150        -0.584706
 C        -0.683818        -0.770329        -1.306085
 C        -0.503097        -1.290169         0.088224
 C         0.208757        -2.541318         0.359139
 C         0.153981         0.017212         0.749084
 O         0.942331         0.207946         1.682627
 O        -0.451815         1.091031         0.103079
 H        -3.423119        -1.926818        -0.772925
 H        -3.219780        -2.347166         0.941200
 H        -4.218267        -0.943622         0.461898
 H        -2.084797        -0.328750         1.462411
 H        -2.283770         0.955704        -0.991686
 H        -1.182549        -1.410899        -2.118194
 H         0.162111        -0.349304        -1.803530
 H        -0.169337        -3.372009        -0.204222
 H         1.234551        -2.335622         0.160537
 H         0.072362        -2.776404         1.402775
