19
Iteration:  3165
 C        -3.071484        -1.778290         0.057349
 C        -1.994313        -0.756929         0.480788
 C        -1.631385         0.462381        -0.442538
 C        -0.706495        -0.561310        -1.294700
 C        -0.489184        -1.214550         0.132763
 C        -0.050788        -2.614382         0.270633
 C         0.228849         0.064355         0.774378
 O         1.294486         0.195912         1.364235
 O        -0.676306         1.098500         0.479343
 H        -3.626476        -1.973459         1.000902
 H        -3.873232        -1.392708        -0.503048
 H        -2.729020        -2.578554        -0.621364
 H        -2.076750        -0.368947         1.476482
 H        -2.320425         1.259238        -0.610235
 H        -1.418655        -1.307036        -1.780507
 H         0.044768        -0.247459        -1.972484
 H        -0.877314        -3.327719         0.149037
 H         0.710092        -2.936719        -0.537090
 H         0.540275        -2.706079         1.212805
