19
Iteration:  1856charge 0 multiplicity 1
 C        -3.141609        -1.634661         0.005046
 C        -2.067287        -0.637191         0.599127
 C        -1.613665         0.324847        -0.514134
 C        -0.818891        -0.755320        -1.160985
 C        -0.543206        -1.180126         0.236275
 C        -0.006817        -2.588813         0.439126
 C         0.276686         0.071892         0.741009
 O         1.204696         0.160968         1.513179
 O        -0.431851         1.136749         0.047269
 H        -2.820353        -2.364980        -0.737785
 H        -3.612068        -2.169763         0.886994
 H        -3.936058        -0.924209        -0.489761
 H        -2.311044        -0.466936         1.649395
 H        -2.282690         1.057351        -1.022034
 H        -1.389567        -1.433957        -1.754714
 H         0.081678        -0.399835        -1.744171
 H         1.046127        -2.717359         0.741213
 H        -0.516710        -3.254191         1.003872
 H         0.041967        -2.950320        -0.594990
