19
Iteration:  4360charge 0 multiplicity 1
 C        -3.081985        -1.770387         0.071675
 C        -1.923233        -0.883902         0.641006
 C        -1.719326         0.449220        -0.170317
 C        -0.953118        -0.406135        -1.163778
 C        -0.444668        -1.175011         0.066450
 C         0.109508        -2.583343        -0.051820
 C         0.292966         0.016425         0.672310
 O         1.307899         0.164261         1.275783
 O        -0.684935         1.095238         0.564263
 H        -2.960149        -2.864956         0.191539
 H        -4.073931        -1.564620         0.443395
 H        -3.239189        -1.497332        -1.028479
 H        -2.060909        -0.842408         1.738902
 H        -2.411593         1.065740        -0.765772
 H        -1.528026        -1.082243        -1.752011
 H        -0.275201        -0.031520        -1.863244
 H        -0.101191        -3.014973        -0.964955
 H         1.160030        -2.452766         0.127187
 H        -0.152287        -3.283453         0.709055
