19
Iteration:  3197
 C        -3.241787        -1.695119        -0.032121
 C        -2.033049        -0.824929         0.492668
 C        -1.678776         0.394378        -0.319679
 C        -0.588044        -0.492845        -1.249996
 C        -0.535321        -1.197180         0.165999
 C         0.081874        -2.590955         0.369362
 C         0.181983         0.024647         0.738970
 O         1.333294         0.189584         1.137841
 O        -0.660524         1.046103         0.538032
 H        -3.956978        -2.079551         0.746584
 H        -3.738132        -1.149043        -0.795085
 H        -2.900625        -2.690458        -0.338677
 H        -2.141214        -0.482330         1.512214
 H        -2.347487         1.175194        -0.580955
 H        -1.083592        -1.024466        -2.092294
 H         0.193432         0.049264        -1.698049
 H        -0.573157        -3.398458        -0.097684
 H         1.216081        -2.577308         0.072598
 H         0.009989        -2.669391         1.525167
