19
Iteration:  2089charge 0 multiplicity 1
 C        -3.017424        -1.658589        -0.057627
 C        -1.938353        -0.749611         0.503534
 C        -1.505232         0.453953        -0.540490
 C        -0.777529        -0.675697        -1.332480
 C        -0.536914        -1.223766         0.163213
 C        -0.045032        -2.575281         0.596222
 C         0.228227        -0.002962         0.750151
 O         1.064472         0.141285         1.614104
 O        -0.506448         1.169036         0.141625
 H        -2.896516        -1.973405        -1.142401
 H        -3.299689        -2.633853         0.453055
 H        -4.018986        -1.093921        -0.102916
 H        -2.262855        -0.400167         1.493255
 H        -2.312612         1.133012        -1.020544
 H        -1.381356        -1.370564        -1.871843
 H         0.038884        -0.363426        -1.964067
 H        -0.942499        -3.073861         0.782753
 H         0.515777        -3.086021        -0.193219
 H         0.427739        -2.573821         1.537414
