19
Iteration:   692charge 0 multiplicity 1
 C        -2.979617        -1.553374         0.903920
 C        -1.775746        -0.603601         0.962356
 C        -1.738438         0.490385        -0.135963
 C        -1.468241        -0.609990        -1.090428
 C        -0.499149        -1.184757         0.070012
 C        -0.080133        -2.741418         0.161000
 C         0.349216        -0.019091         0.336428
 O         1.519399         0.035914         0.524712
 O        -0.453516         1.073636         0.161378
 H        -3.088517        -1.983926         1.883075
 H        -3.838234        -0.886666         0.529620
 H        -2.946431        -2.335482         0.128151
 H        -1.423639        -0.315513         1.982928
 H        -2.587837         1.211067        -0.334812
 H        -2.327926        -1.229147        -1.311175
 H        -1.118419        -0.151935        -2.075093
 H         0.373283        -2.809468         1.132518
 H        -0.948190        -3.407926         0.146909
 H         0.860252        -2.843767        -0.535105
