19
Iteration:  4497charge 0 multiplicity 1
 C        -3.098653        -1.722252         0.289587
 C        -1.918214        -0.820827         0.588005
 C        -1.703689         0.389416        -0.284667
 C        -0.894206        -0.435323        -1.338296
 C        -0.423480        -1.168530        -0.059279
 C         0.192260        -2.519626        -0.181394
 C         0.240692         0.022881         0.677823
 O         1.110698         0.090716         1.506118
 O        -0.614401         1.058143         0.611413
 H        -2.902157        -2.622379         0.865998
 H        -4.118024        -1.250767         0.406613
 H        -3.086070        -1.962589        -0.762633
 H        -1.743307        -0.659943         1.621105
 H        -2.619669         0.981915        -0.482505
 H        -1.533119        -1.052034        -2.039395
 H        -0.128755         0.125907        -1.949466
 H        -0.661762        -3.276095        -0.292441
 H         0.851351        -2.565065        -1.079182
 H         0.944532        -2.709413         0.596517
