19
Iteration:  1980
 C        -3.259300        -1.566198        -0.117954
 C        -1.977069        -0.758263         0.526769
 C        -1.633659         0.394055        -0.494594
 C        -0.720670        -0.790007        -1.189026
 C        -0.451351        -1.237353         0.250407
 C         0.050091        -2.673895         0.484495
 C         0.214927         0.116791         0.764451
 O         1.176368         0.246596         1.525476
 O        -0.486529         1.128237         0.127512
 H        -3.149782        -1.694686        -1.229853
 H        -3.637545        -2.479225         0.335913
 H        -3.972128        -0.746722         0.034647
 H        -2.270451        -0.496040         1.545287
 H        -2.333939         1.036079        -1.073287
 H        -1.434519        -1.525517        -1.621593
 H         0.066176        -0.555256        -1.862652
 H         0.125385        -3.195176        -0.430132
 H         1.051063        -2.602840         0.972422
 H        -0.466920        -3.212621         1.239198
