19
Iteration:  1777
 C        -3.182452        -1.636167         0.067180
 C        -2.064252        -0.727407         0.546890
 C        -1.608164         0.361757        -0.495706
 C        -0.697529        -0.648535        -1.194020
 C        -0.625025        -1.208932         0.230912
 C        -0.061473        -2.543128         0.539481
 C         0.248593         0.014444         0.729071
 O         1.372371         0.134867         1.199885
 O        -0.532028         1.116773         0.239826
 H        -3.168368        -2.608375         0.703041
 H        -4.224920        -1.102534         0.125999
 H        -3.182333        -1.983313        -1.021501
 H        -2.208337        -0.481919         1.646570
 H        -2.308694         1.190318        -0.847905
 H        -1.277224        -1.174454        -1.998755
 H         0.212090        -0.183578        -1.681905
 H        -0.595109        -2.832796         1.450315
 H        -0.101713        -3.309947        -0.259872
 H         0.984284        -2.542069         0.804968
