19
Iteration:  2532
 C        -3.061946        -1.773715        -0.108570
 C        -2.065383        -0.684052         0.469122
 C        -1.590869         0.366139        -0.539102
 C        -0.726443        -0.707566        -1.260300
 C        -0.528133        -1.149646         0.323924
 C        -0.204176        -2.594603         0.559793
 C         0.323639         0.040471         0.773560
 O         1.340682         0.286645         1.450353
 O        -0.573824         1.098009         0.211099
 H        -2.823632        -2.126870        -1.136264
 H        -3.399770        -2.606281         0.580304
 H        -4.066935        -1.259835        -0.352758
 H        -2.379009        -0.271315         1.486534
 H        -2.325492         1.177442        -0.987883
 H        -1.086469        -1.438615        -1.941143
 H         0.182675        -0.293959        -1.787065
 H        -1.100668        -3.255608         0.393118
 H         0.658435        -2.848068        -0.036783
 H         0.004582        -2.846563         1.630469
