19
Iteration:   873
 C        -3.154629        -1.581823         0.875931
 C        -1.973980        -0.715449         0.879422
 C        -1.696275         0.476600        -0.109956
 C        -1.191425        -0.615350        -1.209241
 C        -0.634949        -1.241342         0.180682
 C         0.031719        -2.530986         0.142766
 C         0.340322        -0.042376         0.419996
 O         1.539442         0.065286         0.517055
 O        -0.446344         1.068295         0.215371
 H        -3.071797        -2.189061         1.795994
 H        -4.102370        -0.968695         0.930286
 H        -3.307213        -2.297691         0.061753
 H        -1.758297        -0.347903         1.903048
 H        -2.453895         1.295339        -0.239446
 H        -2.007731        -1.172696        -1.696633
 H        -0.410774        -0.312860        -1.949529
 H        -0.603072        -3.372992         0.500287
 H         0.297892        -2.909703        -0.872346
 H         0.977618        -2.513821         0.708469
