19
Iteration:  2378
 C        -3.135520        -1.697977         0.343453
 C        -1.985502        -0.652588         0.333072
 C        -1.512263         0.454701        -0.754153
 C        -0.513513        -0.650442        -1.298289
 C        -0.454391        -1.212776         0.155845
 C        -0.066543        -2.719626         0.370521
 C         0.149657         0.080364         0.778752
 O         0.965635         0.175750         1.633862
 O        -0.538233         1.115209         0.174371
 H        -3.104691        -2.364221        -0.577306
 H        -3.163706        -2.256399         1.406537
 H        -4.183349        -1.283002         0.424645
 H        -2.052576         0.099642         1.151985
 H        -1.890087         1.369199        -1.130515
 H        -1.050683        -1.431247        -1.960865
 H         0.491551        -0.531805        -1.644724
 H        -0.912643        -3.264331        -0.131521
 H         0.840739        -2.958526        -0.015723
 H         0.082803        -2.908482         1.442540
