19
Iteration:  4135charge 0 multiplicity 1
 C        -3.022364        -1.775140        -0.026648
 C        -1.976186        -0.877392         0.576469
 C        -1.741483         0.412062        -0.096363
 C        -1.030956        -0.357827        -1.191781
 C        -0.504456        -1.165084         0.094993
 C         0.181234        -2.542876         0.131556
 C         0.200653         0.017578         0.701946
 O         1.360171         0.100731         1.005404
 O        -0.628482         1.081915         0.676846
 H        -2.904796        -2.751969         0.479526
 H        -4.062682        -1.485163         0.347108
 H        -3.058679        -1.933263        -1.096934
 H        -1.900095        -0.874450         1.700063
 H        -2.444509         1.177999        -0.428535
 H        -1.637392        -0.991058        -1.859137
 H        -0.283608         0.389330        -1.750964
 H         1.194200        -2.647407        -0.251246
 H         0.244612        -2.798305         1.146683
 H        -0.445481        -3.202381        -0.431500
