19
Iteration:  2185
 C        -3.090141        -1.633880        -0.002864
 C        -1.988990        -0.624366         0.422197
 C        -1.593959         0.393504        -0.537861
 C        -0.860915        -0.692174        -1.375748
 C        -0.516113        -1.231403         0.111747
 C         0.091726        -2.525771         0.616977
 C         0.218436        -0.044354         0.737861
 O         1.047462         0.143891         1.625905
 O        -0.404351         1.085665         0.178250
 H        -2.888206        -2.165505        -0.943742
 H        -3.356073        -2.346963         0.722729
 H        -4.048011        -1.152709        -0.268392
 H        -2.010555        -0.303120         1.492712
 H        -2.265052         1.198669        -0.966903
 H        -1.557077        -1.428044        -1.912774
 H        -0.136188        -0.359952        -2.141374
 H        -0.262535        -3.487987         0.133857
 H         1.184181        -2.361142         0.765097
 H        -0.383197        -2.623212         1.634903
