19
Iteration:  4059charge 0 multiplicity 1
 C        -2.966012        -1.763259         0.399232
 C        -1.917976        -0.788022         0.599970
 C        -1.742913         0.396668        -0.274940
 C        -1.030990        -0.406123        -1.318121
 C        -0.478956        -1.146359        -0.123062
 C         0.234609        -2.450610        -0.160200
 C         0.223238        -0.037161         0.646429
 O         1.038190        -0.041414         1.537305
 O        -0.495772         1.124026         0.454652
 H        -2.614196        -2.630362         1.029457
 H        -3.887019        -1.503578         1.073544
 H        -3.332238        -2.085253        -0.601098
 H        -1.809891        -0.386692         1.630557
 H        -2.600823         1.056093        -0.450377
 H        -1.715937        -0.900805        -2.001388
 H        -0.245445         0.046080        -2.050411
 H         0.944469        -2.390273        -0.989575
 H         0.777078        -2.548971         0.729368
 H        -0.366750        -3.302909        -0.416050
