19
Iteration:  4254charge 0 multiplicity 1
 C        -3.056515        -1.846158         0.333554
 C        -1.925636        -0.825096         0.641632
 C        -1.756416         0.459799        -0.225804
 C        -0.996954        -0.378881        -1.278322
 C        -0.539554        -1.196903        -0.083023
 C         0.235370        -2.553437        -0.154439
 C         0.217589         0.041980         0.699652
 O         1.155074         0.073934         1.414303
 O        -0.488409         1.121766         0.461578
 H        -3.034284        -2.738875         0.978209
 H        -3.940615        -1.279911         0.488194
 H        -2.961474        -2.194409        -0.685592
 H        -1.951522        -0.594968         1.697276
 H        -2.495104         1.224510        -0.470164
 H        -1.626892        -1.158958        -1.783379
 H        -0.259200         0.213327        -1.902170
 H         1.196295        -2.570846        -0.795619
 H         0.505048        -2.842973         0.913988
 H        -0.549832        -3.261390        -0.597727
