19
Iteration:   940charge 0 multiplicity 1
 C        -3.076908        -1.602758         0.857194
 C        -1.887008        -0.703154         0.924216
 C        -1.710527         0.442255        -0.153027
 C        -1.336409        -0.557895        -1.244343
 C        -0.641729        -1.193350         0.048799
 C         0.062536        -2.536755         0.100002
 C         0.336489        -0.049918         0.396971
 O         1.491660         0.025319         0.753322
 O        -0.420856         1.038417         0.181214
 H        -3.379373        -1.749066         1.880100
 H        -3.916169        -1.028519         0.343714
 H        -2.820228        -2.545442         0.366948
 H        -1.689785        -0.259158         1.942304
 H        -2.505869         1.269459        -0.251003
 H        -2.134512        -1.159292        -1.645961
 H        -0.620344        -0.240295        -2.050710
 H         0.882722        -2.488284         0.838928
 H        -0.586148        -3.279999         0.462880
 H         0.378161        -2.786506        -0.977013
