19
Iteration:  3457charge 0 multiplicity 1
 C        -3.049616        -1.775845         0.039403
 C        -1.974536        -0.812757         0.518251
 C        -1.725817         0.446286        -0.261710
 C        -0.856115        -0.474868        -1.166454
 C        -0.530237        -1.190344         0.121251
 C        -0.030609        -2.645071         0.259888
 C         0.257976         0.015336         0.698806
 O         1.397202         0.203279         1.062212
 O        -0.632828         1.126140         0.602471
 H        -2.693260        -2.520188        -0.762964
 H        -3.654888        -2.298290         0.804233
 H        -3.652408        -1.072562        -0.632656
 H        -2.164086        -0.667717         1.651503
 H        -2.415068         1.166426        -0.711241
 H        -1.556153        -1.160586        -1.853050
 H         0.002890         0.003510        -1.650522
 H         1.048931        -2.744487         0.223827
 H        -0.183070        -2.965080         1.288674
 H        -0.366670        -3.416919        -0.453416
