19
Iteration:  1720
 C        -3.151138        -1.662281         0.291597
 C        -1.950775        -0.700031         0.549184
 C        -1.601829         0.374285        -0.499758
 C        -0.849358        -0.680326        -1.373196
 C        -0.474044        -1.177605         0.121367
 C        -0.036150        -2.540230         0.444659
 C         0.298536         0.043544         0.602383
 O         1.187569         0.117272         1.423864
 O        -0.467633         1.098314         0.214723
 H        -4.084832        -1.474220         0.995000
 H        -3.578449        -1.345096        -0.700538
 H        -2.985270        -2.741151         0.221506
 H        -2.021463        -0.302763         1.566399
 H        -2.355533         1.108097        -0.583253
 H        -1.548332        -1.418786        -1.913791
 H        -0.149306        -0.164883        -1.997426
 H        -0.947848        -3.085227         0.603420
 H         0.545949        -3.056332        -0.391960
 H         0.478438        -2.516123         1.391509
