19
Iteration:  4034charge 0 multiplicity 1
 C        -2.991178        -1.883958         0.391710
 C        -1.900349        -0.883703         0.734150
 C        -1.732151         0.597813        -0.303928
 C        -1.133653        -0.369072        -1.362051
 C        -0.487630        -1.096452        -0.161979
 C         0.330888        -2.399538        -0.083483
 C         0.211353        -0.062747         0.688078
 O         1.067289        -0.178106         1.564958
 O        -0.493263         1.186526         0.319345
 H        -3.080508        -2.543100         1.276350
 H        -3.846850        -1.291635         0.595644
 H        -3.157840        -2.465694        -0.532457
 H        -1.625423        -0.774604         1.746099
 H        -2.522057         1.374494        -0.558114
 H        -1.834514        -0.855583        -2.132228
 H        -0.471327         0.172643        -2.133675
 H         1.169383        -2.347735        -0.725282
 H         0.657650        -2.670261         0.943779
 H        -0.358329        -3.225847        -0.404337
