19
Iteration:  2283
 C        -3.252316        -1.553774        -0.092844
 C        -2.048567        -0.737002         0.429807
 C        -1.524099         0.288603        -0.580905
 C        -0.584940        -0.685527        -1.225284
 C        -0.539183        -1.186975         0.276450
 C         0.024138        -2.572657         0.668896
 C         0.210052         0.056205         0.731516
 O         1.240984         0.147923         1.362514
 O        -0.628456         1.096042         0.290045
 H        -3.215393        -1.822716        -1.135914
 H        -3.423211        -2.393104         0.489998
 H        -4.195952        -1.025524         0.006331
 H        -2.280671        -0.207996         1.366279
 H        -2.343242         0.852343        -1.079770
 H        -1.103543        -1.386761        -1.949421
 H         0.297371        -0.191675        -1.725784
 H        -0.675434        -3.371512         0.311365
 H         1.012513        -2.688224         0.120991
 H         0.391903        -2.634045         1.714189
