19
Iteration:  4613charge 0 multiplicity 1
 C        -3.127643        -1.834342         0.079306
 C        -1.976177        -0.898617         0.530843
 C        -1.756588         0.389771        -0.187641
 C        -0.842269        -0.312020        -1.261229
 C        -0.444877        -1.170554         0.170648
 C         0.087679        -2.591263        -0.029926
 C         0.208492        -0.005298         0.804080
 O         1.376369         0.231874         1.149596
 O        -0.626866         1.048570         0.601636
 H        -3.386051        -2.623243         0.847630
 H        -3.972733        -1.069442         0.178981
 H        -3.222465        -2.151188        -0.972974
 H        -2.292726        -0.837317         1.664022
 H        -2.547996         1.104145        -0.421611
 H        -1.415898        -0.893872        -1.967973
 H        -0.024609         0.255986        -1.684095
 H        -0.204633        -3.084909        -0.934297
 H         1.160978        -2.614094         0.141525
 H        -0.177613        -3.162592         0.910898
