19
Iteration:   106charge 0 multiplicity 1
 C        -2.921389        -1.403161         1.387790
 C        -1.603675        -0.676354         1.202052
 C        -1.802224         0.378742         0.118213
 C        -1.758751        -0.638366        -1.002258
 C        -0.626526        -1.208368         0.027112
 C        -0.046639        -2.596376        -0.136999
 C         0.407629        -0.018885         0.114167
 O         1.651813        -0.021868         0.089996
 O        -0.434400         1.061870         0.134475
 H        -2.856587        -1.694692         2.433126
 H        -3.793837        -0.677177         1.171136
 H        -2.992433        -2.277260         0.722886
 H        -1.145333        -0.280878         2.152597
 H        -2.599236         1.101672         0.103050
 H        -2.728084        -1.143264        -0.827359
 H        -1.565928        -0.407432        -2.105022
 H        -0.557515        -3.028155        -1.094828
 H         1.061049        -2.632484        -0.232604
 H        -0.372833        -3.313133         0.560622
