19
Iteration:  2016charge 0 multiplicity 1
 C        -3.195477        -1.563536         0.032532
 C        -2.042756        -0.713035         0.344715
 C        -1.599598         0.343558        -0.587304
 C        -0.573395        -0.623120        -1.330033
 C        -0.447539        -1.202283         0.207420
 C        -0.029680        -2.648685         0.590633
 C         0.188852        -0.028738         0.802281
 O         1.228833         0.251245         1.387410
 O        -0.639845         1.042385         0.366900
 H        -3.112883        -2.067907        -0.900666
 H        -3.609208        -2.247304         0.785996
 H        -3.961017        -0.881090        -0.172910
 H        -2.185581        -0.352649         1.384747
 H        -2.190178         0.995124        -1.301309
 H        -1.031060        -1.273213        -2.039777
 H         0.481914        -0.329782        -1.676933
 H        -0.390657        -3.518778        -0.021352
 H         1.126141        -2.666715         0.599833
 H        -0.472040        -2.782458         1.601856
