19
Iteration:  4959charge 0 multiplicity 1
 C        -3.120168        -1.883772         0.257883
 C        -1.970898        -0.786435         0.600303
 C        -1.683907         0.541148        -0.301711
 C        -0.982838        -0.317943        -1.327191
 C        -0.441474        -1.121842        -0.088447
 C         0.300020        -2.456599        -0.040399
 C         0.151857        -0.093237         0.763038
 O         1.198512        -0.045329         1.430923
 O        -0.579615         1.116077         0.496052
 H        -3.088945        -2.845538         0.932309
 H        -4.106812        -1.366188         0.441820
 H        -3.152122        -2.422442        -0.776986
 H        -1.924096        -0.601709         1.770435
 H        -2.389176         1.241752        -0.782664
 H        -1.733464        -1.011265        -1.658599
 H        -0.175969         0.102044        -1.916004
 H        -0.129612        -3.242739        -0.620978
 H         1.253232        -2.303437        -0.473413
 H         0.197384        -2.916667         0.947475
