19
Iteration:  3641charge 0 multiplicity 1
 C        -3.107327        -1.795920         0.153335
 C        -1.974876        -0.907680         0.581227
 C        -1.657875         0.460584        -0.255965
 C        -0.923713        -0.311568        -1.287357
 C        -0.537439        -1.151760        -0.007939
 C         0.180180        -2.440434         0.247255
 C         0.230387        -0.016400         0.627454
 O         1.313787        -0.015495         1.194627
 O        -0.636742         1.059038         0.535901
 H        -4.115209        -1.462517         0.395567
 H        -3.237854        -1.848627        -0.886469
 H        -2.934789        -2.776005         0.593672
 H        -2.062034        -0.646273         1.652936
 H        -2.434732         1.188572        -0.479446
 H        -1.696280        -0.835652        -1.904362
 H        -0.201233         0.188754        -1.861724
 H         1.286730        -2.350193         0.391947
 H        -0.202129        -2.645646         1.307085
 H        -0.059627        -3.216521        -0.545612
