19
Iteration:  2834
 C        -3.054664        -1.712381         0.260917
 C        -1.988920        -0.691676         0.421557
 C        -1.578137         0.401162        -0.620744
 C        -0.719604        -0.657184        -1.405111
 C        -0.587396        -1.184916         0.108021
 C         0.113010        -2.467266         0.510431
 C         0.102599         0.006960         0.729668
 O         0.913875         0.074420         1.616575
 O        -0.391058         1.107045         0.132377
 H        -2.711454        -2.614842         0.807886
 H        -4.006865        -1.325951         0.858792
 H        -3.319730        -2.016647        -0.779491
 H        -2.089972        -0.167029         1.330610
 H        -1.987362         1.367888        -1.128001
 H        -1.126730        -1.389019        -2.088581
 H         0.206756        -0.308039        -1.894848
 H        -0.278211        -3.435272         0.139750
 H         1.070157        -2.402261         0.177442
 H         0.110300        -2.608681         1.582379
