19
Iteration:  3988
 C        -3.060529        -1.769496         0.293355
 C        -1.924265        -0.841054         0.613368
 C        -1.760427         0.391863        -0.285937
 C        -1.034488        -0.400859        -1.253436
 C        -0.492843        -1.166393        -0.022156
 C         0.148457        -2.508530        -0.151388
 C         0.292738        -0.003598         0.754622
 O         1.342110         0.097996         1.337679
 O        -0.636259         1.071182         0.559129
 H        -3.553843        -2.399716         1.018938
 H        -3.843639        -1.240830        -0.187010
 H        -2.759064        -2.435638        -0.512390
 H        -1.951124        -0.437477         1.634827
 H        -2.504422         1.134577        -0.554646
 H        -1.631923        -1.001124        -2.011104
 H        -0.293500         0.114267        -1.875045
 H         1.219735        -2.441036        -0.518071
 H         0.157134        -2.771060         0.971191
 H        -0.468840        -3.312970        -0.636732
