19
Iteration:   899charge 0 multiplicity 1
 C        -3.145644        -1.423256         0.790885
 C        -1.851692        -0.740560         0.976064
 C        -1.782020         0.407893        -0.063499
 C        -1.363460        -0.587818        -1.212820
 C        -0.525278        -1.255976         0.084069
 C         0.121245        -2.628181         0.138092
 C         0.366034        -0.016393         0.306187
 O         1.522128         0.042114         0.646342
 O        -0.490908         1.073043         0.212196
 H        -3.504329        -2.005807         1.636581
 H        -3.904311        -0.737105         0.340462
 H        -3.128018        -2.271545         0.052247
 H        -1.556399        -0.433904         1.996536
 H        -2.546002         1.188908        -0.170939
 H        -2.173379        -1.185789        -1.615325
 H        -0.828984        -0.123567        -2.046417
 H        -0.161820        -2.997542         1.142216
 H        -0.115089        -3.422530        -0.548825
 H         1.288345        -2.585432         0.267494
