19
Iteration:  2355charge 0 multiplicity 1
 C        -3.115300        -1.647752         0.190006
 C        -2.017017        -0.599736         0.366467
 C        -1.489619         0.301649        -0.614285
 C        -0.609175        -0.714319        -1.382476
 C        -0.513086        -1.132850         0.179159
 C        -0.025140        -2.461634         0.441091
 C         0.119788        -0.008302         0.824488
 O         1.010930         0.076972         1.636740
 O        -0.494306         1.091796         0.142714
 H        -3.015626        -2.191684        -0.813239
 H        -3.047439        -2.371590         1.141367
 H        -4.181288        -1.353805         0.347515
 H        -1.959957        -0.097384         1.351828
 H        -2.052125         0.919446        -1.238223
 H        -1.201379        -1.478269        -1.992798
 H         0.267432        -0.322267        -1.814499
 H        -0.836441        -3.218970         0.315445
 H         0.743040        -2.687695        -0.176985
 H         0.491519        -2.400830         1.404788
