19
Iteration:  3738
 C        -3.089841        -1.846027         0.109970
 C        -1.949731        -0.908461         0.596370
 C        -1.742277         0.493038        -0.115750
 C        -0.916878        -0.357065        -1.286460
 C        -0.555191        -1.164118        -0.006677
 C         0.147841        -2.498570         0.177508
 C         0.197030         0.000875         0.662783
 O         1.272189         0.044854         1.232680
 O        -0.515826         1.116917         0.468092
 H        -3.630294        -1.516906        -0.878053
 H        -2.776872        -2.883971        -0.284931
 H        -3.874898        -1.852228         0.918422
 H        -1.994510        -0.852210         1.678845
 H        -2.465672         1.302050        -0.232198
 H        -1.587780        -1.034163        -1.961602
 H        -0.122955         0.273472        -1.792428
 H         0.977583        -2.656719        -0.550550
 H         0.643318        -2.388265         1.203307
 H        -0.673422        -3.275872         0.085011
