19
Iteration:  3038
 C        -3.145764        -1.669881         0.115624
 C        -1.980098        -0.737843         0.513117
 C        -1.624702         0.344008        -0.477250
 C        -0.766946        -0.635293        -1.299670
 C        -0.518500        -1.201550         0.184330
 C         0.065451        -2.546834         0.240776
 C         0.183962         0.039537         0.817224
 O         1.187991         0.234630         1.456066
 O        -0.524639         1.066769         0.297710
 H        -2.921008        -2.315874        -0.722785
 H        -3.282987        -2.235852         1.046230
 H        -4.095321        -1.132653        -0.110740
 H        -2.126020        -0.245124         1.546395
 H        -2.441051         1.048612        -0.901270
 H        -1.381299        -1.345171        -1.967575
 H         0.193193        -0.404445        -1.770325
 H        -0.387426        -3.255391        -0.489427
 H         1.175215        -2.607787         0.094925
 H        -0.221546        -3.087861         1.138500
