19
Iteration:  2043
 C        -3.196035        -1.837138         0.001849
 C        -2.040316        -0.678840         0.330716
 C        -1.482729         0.483043        -0.576393
 C        -0.608756        -0.648623        -1.283456
 C        -0.567926        -1.116801         0.200820
 C        -0.077376        -2.460259         0.631212
 C         0.184443         0.066149         0.787962
 O         1.189423         0.003950         1.402066
 O        -0.534434         1.139634         0.321308
 H        -2.937615        -2.394980        -0.955122
 H        -3.239197        -2.541146         0.834805
 H        -4.256833        -1.437804        -0.248357
 H        -2.189544        -0.384062         1.370682
 H        -1.950341         1.173564        -1.228355
 H        -1.430837        -1.241694        -1.815018
 H         0.271634        -0.548226        -1.883088
 H        -0.600175        -3.406073         0.426190
 H         0.856206        -2.419230         0.147130
 H         0.146193        -2.443416         1.714788
