19
Iteration:  4310
 C        -3.110532        -1.855879         0.359569
 C        -1.932831        -0.795117         0.578906
 C        -1.675570         0.502298        -0.198602
 C        -0.959732        -0.369299        -1.348624
 C        -0.458562        -1.137623        -0.137971
 C         0.317378        -2.449751        -0.020828
 C         0.221494         0.026471         0.674964
 O         1.094197        -0.065853         1.439129
 O        -0.581549         1.099959         0.429736
 H        -2.616847        -2.842366         0.430398
 H        -3.815615        -1.808801         1.210628
 H        -3.785333        -1.845018        -0.475402
 H        -1.950102        -0.593236         1.648335
 H        -2.466087         1.193310        -0.395481
 H        -1.728882        -0.863825        -2.006652
 H        -0.139104         0.062423        -2.066867
 H         0.439364        -2.826315        -1.129243
 H         1.198010        -2.564985         0.666546
 H        -0.474581        -3.169768         0.379992
