19
Iteration:  1600
 C        -3.097205        -1.658227         0.243483
 C        -1.899886        -0.745416         0.540249
 C        -1.666165         0.379330        -0.364326
 C        -0.949289        -0.600173        -1.355186
 C        -0.470941        -1.182257         0.112385
 C        -0.123232        -2.654809         0.413668
 C         0.295561         0.129776         0.668326
 O         1.379837         0.107405         1.236395
 O        -0.553579         1.148862         0.305815
 H        -3.026068        -2.149050        -0.778525
 H        -3.312931        -2.478583         0.945639
 H        -4.041935        -1.097697         0.361788
 H        -1.924168        -0.669182         1.634962
 H        -2.383769         1.022867        -0.759248
 H        -1.482221        -1.415695        -1.928645
 H        -0.215222        -0.071882        -1.974040
 H         0.760092        -3.027205        -0.001324
 H         0.065186        -2.719439         1.516216
 H        -1.028823        -3.165859         0.245773
