19
Iteration:  4770charge 0 multiplicity 1
 C        -3.123714        -1.803818         0.422005
 C        -1.913831        -0.934842         0.692763
 C        -1.762742         0.502083        -0.366193
 C        -0.892874        -0.358103        -1.402269
 C        -0.423403        -1.143849        -0.106879
 C         0.213231        -2.508972        -0.178144
 C         0.260894         0.044058         0.714225
 O         1.084396        -0.011629         1.588434
 O        -0.576543         1.101235         0.448917
 H        -2.976976        -2.752899         0.995362
 H        -4.136315        -1.286263         0.670118
 H        -2.987003        -2.174888        -0.669271
 H        -1.829207        -0.425478         1.753004
 H        -2.512874         1.280197        -0.549049
 H        -1.410142        -0.964798        -2.159307
 H        -0.059716         0.181606        -1.817556
 H        -0.341032        -3.077878        -0.942529
 H         1.129094        -2.302104        -0.774379
 H         0.386407        -3.132980         0.653220
