19
Iteration:   746
 C        -3.201096        -1.483676         1.194168
 C        -1.992310        -0.624867         0.893099
 C        -1.773273         0.407420        -0.189289
 C        -1.230088        -0.602000        -1.280246
 C        -0.570176        -1.204060         0.056637
 C         0.205714        -2.647919         0.061819
 C         0.329960        -0.037843         0.426626
 O         1.518016        -0.045772         0.605460
 O        -0.449820         1.114634         0.117356
 H        -3.022368        -2.234016         1.947855
 H        -3.903061        -0.724359         1.726248
 H        -3.750713        -1.806039         0.296882
 H        -1.601431        -0.114378         1.791645
 H        -2.667635         1.104415        -0.267871
 H        -1.937305        -1.321657        -1.623395
 H        -0.671935        -0.252019        -2.183958
 H         1.274734        -2.630387        -0.050471
 H        -0.136490        -3.350524         0.858971
 H        -0.199507        -3.122343        -1.001460
