19
Iteration:   869charge 0 multiplicity 1
 C        -3.173294        -1.599133         0.889902
 C        -1.996425        -0.693645         0.876034
 C        -1.716200         0.484175        -0.137903
 C        -1.181338        -0.641710        -1.224994
 C        -0.602609        -1.220885         0.211066
 C         0.038148        -2.559779         0.118920
 C         0.344935        -0.004727         0.397881
 O         1.553172         0.035499         0.517413
 O        -0.449527         1.094979         0.246799
 H        -3.038505        -2.202092         1.823772
 H        -4.082156        -1.081106         1.095760
 H        -3.193253        -2.239418        -0.017035
 H        -1.776002        -0.377693         1.896821
 H        -2.432420         1.248373        -0.292479
 H        -2.032655        -1.199277        -1.705277
 H        -0.483465        -0.283149        -1.984360
 H        -0.750273        -3.269953         0.440478
 H         0.424265        -2.959716        -0.859486
 H         0.847546        -2.555794         0.819381
