19
Iteration:  2582
 C        -3.127468        -1.560000         0.165962
 C        -2.026072        -0.615104         0.413855
 C        -1.576615         0.377389        -0.553800
 C        -0.694102        -0.680708        -1.413581
 C        -0.514599        -1.195300         0.043750
 C         0.146741        -2.445357         0.561901
 C         0.201502        -0.024834         0.734218
 O         1.019633         0.029278         1.597949
 O        -0.558000         1.031038         0.192830
 H        -2.805974        -2.330266        -0.493861
 H        -3.394685        -1.980768         1.125826
 H        -4.045950        -1.247167        -0.224816
 H        -2.101212        -0.220282         1.424061
 H        -2.235854         1.080115        -1.026926
 H        -1.275052        -1.422598        -2.088136
 H         0.175985        -0.459505        -1.979760
 H        -0.463037        -3.379884         0.479756
 H         1.129098        -2.586611         0.110315
 H         0.395028        -2.352943         1.640362
