19
Iteration:   345
 C        -2.976123        -1.605418         1.223725
 C        -1.657139        -0.641308         1.076428
 C        -1.737373         0.505483        -0.028755
 C        -1.543980        -0.591361        -1.028533
 C        -0.598372        -1.207397         0.096280
 C        -0.169510        -2.631572         0.091137
 C         0.368025         0.008804         0.189889
 O         1.569014         0.035694         0.271775
 O        -0.414852         1.061407         0.023216
 H        -3.817428        -1.044078         0.862269
 H        -2.819893        -2.499188         0.523958
 H        -3.195440        -1.902262         2.256463
 H        -1.171177        -0.290945         1.993013
 H        -2.487688         1.246704         0.052407
 H        -2.293337        -1.397033        -1.153429
 H        -1.022605        -0.349111        -2.047808
 H        -0.558583        -3.176257        -0.839670
 H         0.950832        -2.792335         0.126229
 H        -0.573523        -3.054634         1.062122
