19
Iteration:  4054charge 0 multiplicity 1
 C        -3.017816        -1.800675         0.457402
 C        -1.889414        -0.793367         0.562207
 C        -1.701480         0.385617        -0.239556
 C        -1.063179        -0.338069        -1.330547
 C        -0.458074        -1.127293        -0.105326
 C         0.234882        -2.406292        -0.161662
 C         0.209901        -0.016878         0.645592
 O         1.016473        -0.087014         1.543082
 O        -0.485122         1.097592         0.398809
 H        -2.578605        -2.667413         0.935290
 H        -3.931896        -1.460884         0.821898
 H        -3.108810        -2.098565        -0.599459
 H        -1.820807        -0.324502         1.541091
 H        -2.520963         1.110281        -0.354507
 H        -1.758530        -0.997614        -1.932346
 H        -0.366894        -0.031317        -2.071070
 H         1.059093        -2.221406        -0.884289
 H         0.788330        -2.612004         0.839013
 H        -0.362373        -3.366498        -0.247542
