19
Iteration:  2221
 C        -3.060723        -1.766214        -0.019498
 C        -1.995839        -0.658017         0.460516
 C        -1.597825         0.358469        -0.572666
 C        -0.700598        -0.626749        -1.258129
 C        -0.473871        -1.187129         0.173727
 C        -0.199180        -2.578266         0.634657
 C         0.215738         0.037967         0.746154
 O         1.217142         0.131317         1.442162
 O        -0.512308         1.183959         0.182641
 H        -2.652874        -2.286241        -0.917910
 H        -3.218279        -2.596143         0.790394
 H        -4.003855        -1.175549        -0.259538
 H        -2.206593        -0.445880         1.535114
 H        -2.473576         1.021841        -0.991826
 H        -1.043889        -1.416384        -1.854535
 H         0.073863         0.027817        -1.706573
 H        -0.377399        -3.348847        -0.032695
 H         0.871063        -2.777392         0.998939
 H        -0.808925        -2.661069         1.508377
