19
Iteration:  3330charge 0 multiplicity 1
 C        -3.046149        -1.678222         0.345653
 C        -1.930307        -0.738793         0.540323
 C        -1.616489         0.412835        -0.446422
 C        -0.887899        -0.506704        -1.342485
 C        -0.466402        -1.181663         0.017526
 C         0.131707        -2.549336         0.022319
 C         0.200966        -0.028875         0.780348
 O         1.083676         0.088992         1.618321
 O        -0.583971         1.083683         0.246873
 H        -3.983510        -1.181971         0.607366
 H        -3.185080        -2.050684        -0.658877
 H        -2.798343        -2.593298         0.951840
 H        -1.988995        -0.353801         1.555498
 H        -2.364654         1.215783        -0.709396
 H        -1.515326        -1.161314        -2.010192
 H        -0.003142        -0.091278        -1.872168
 H         1.001449        -2.696646        -0.674717
 H         0.515862        -2.856837         1.111155
 H        -0.618745        -3.401879        -0.097328
