19
Iteration:  4839charge 0 multiplicity 1
 C        -3.127759        -1.826511         0.056801
 C        -1.996414        -0.868558         0.554972
 C        -1.791102         0.481361        -0.199755
 C        -0.926021        -0.310906        -1.199748
 C        -0.519061        -1.141036         0.062967
 C         0.185657        -2.504386         0.077909
 C         0.233808         0.036502         0.761098
 O         1.376686         0.039682         1.195768
 O        -0.632226         1.041003         0.541079
 H        -2.914587        -2.791432         0.605506
 H        -4.137289        -1.455835         0.325670
 H        -2.992725        -2.136452        -1.026275
 H        -2.060247        -0.905952         1.687964
 H        -2.481058         1.332337        -0.357153
 H        -1.453507        -0.957380        -1.920797
 H         0.001245         0.132917        -1.632559
 H        -0.236030        -3.265606        -0.546052
 H         1.176990        -2.341160        -0.330816
 H         0.160110        -2.958355         1.087716
