19
Iteration:  2039charge 0 multiplicity 1
 C        -3.236307        -1.806429        -0.011665
 C        -2.007454        -0.679781         0.304306
 C        -1.476183         0.461018        -0.574527
 C        -0.599602        -0.669271        -1.270722
 C        -0.551636        -1.139625         0.181237
 C        -0.069994        -2.485848         0.640857
 C         0.180462         0.123167         0.776457
 O         1.211678         0.016399         1.401824
 O        -0.566531         1.131939         0.354742
 H        -3.018019        -2.441157        -0.826808
 H        -3.331491        -2.490378         0.837011
 H        -4.229658        -1.489578        -0.128641
 H        -2.199622        -0.340722         1.351194
 H        -1.958618         1.188165        -1.243433
 H        -1.364665        -1.246524        -1.779199
 H         0.268711        -0.461573        -2.011129
 H        -0.621201        -3.439365         0.308198
 H         0.931461        -2.451556         0.112257
 H         0.015426        -2.494595         1.774644
