19
Iteration:  2318charge 0 multiplicity 1
 C        -3.199266        -1.564826        -0.157960
 C        -1.955097        -0.740142         0.479710
 C        -1.497581         0.366761        -0.412210
 C        -0.856511        -0.690174        -1.350839
 C        -0.507168        -1.323442         0.157704
 C         0.112206        -2.557964         0.729600
 C         0.203678         0.029390         0.688111
 O         1.056880         0.149444         1.531537
 O        -0.449848         1.167997         0.147507
 H        -3.033691        -1.969838        -1.121537
 H        -3.161567        -2.430700         0.395669
 H        -4.146314        -1.053549        -0.126039
 H        -2.283123        -0.396738         1.480041
 H        -2.310393         1.127117        -0.731574
 H        -1.606000        -1.235667        -1.854577
 H         0.005066        -0.387321        -2.036157
 H        -0.524442        -3.401169         0.875508
 H         0.939689        -2.896122        -0.024936
 H         0.491515        -2.327796         1.717540
