19
Iteration:  3066charge 0 multiplicity 1
 C        -3.314572        -1.663187         0.315790
 C        -1.994596        -0.778464         0.502942
 C        -1.617639         0.358484        -0.589313
 C        -0.676758        -0.538861        -1.313055
 C        -0.464527        -1.193524         0.092278
 C         0.225501        -2.602864         0.183466
 C         0.166244         0.055647         0.745129
 O         1.071633         0.098362         1.562357
 O        -0.529382         1.143570         0.289799
 H        -3.130610        -2.731303        -0.102721
 H        -3.724257        -1.700504         1.311188
 H        -4.097581        -1.192547        -0.330996
 H        -1.965736        -0.251757         1.409133
 H        -2.247054         0.981570        -1.160180
 H        -1.160919        -1.184190        -2.060506
 H         0.239088        -0.182687        -1.783231
 H        -0.268238        -3.499053        -0.129659
 H         1.230475        -2.540253        -0.244689
 H         0.245133        -2.874140         1.263778
