19
Iteration:  1008
 C        -3.019637        -1.614585         0.843274
 C        -1.830984        -0.627954         0.831538
 C        -1.767083         0.395312        -0.197762
 C        -1.296468        -0.508547        -1.255216
 C        -0.544646        -1.248406        -0.053794
 C        -0.022424        -2.675106         0.118064
 C         0.392233        -0.017796         0.355398
 O         1.474001         0.104144         0.890606
 O        -0.469712         1.048617         0.250337
 H        -3.304043        -1.883972         1.904592
 H        -3.885331        -0.952937         0.565146
 H        -3.114715        -2.502565         0.154969
 H        -1.787530        -0.296385         1.882822
 H        -2.460488         1.212895        -0.316130
 H        -2.239295        -0.920611        -1.678905
 H        -0.698522        -0.110068        -2.046197
 H         0.482129        -3.146337        -0.744906
 H         0.683075        -2.693553         0.945489
 H        -0.971758        -3.248617         0.402495
