19
Iteration:  3523charge 0 multiplicity 1
 C        -3.136160        -1.704463         0.249508
 C        -1.958241        -0.845646         0.523859
 C        -1.611274         0.446002        -0.324939
 C        -0.897249        -0.405483        -1.288065
 C        -0.490955        -1.210625         0.010812
 C         0.244224        -2.429695         0.112817
 C         0.193572        -0.025000         0.722736
 O         1.166399        -0.016107         1.398089
 O        -0.619153         1.086810         0.416526
 H        -3.257736        -2.693297         0.839410
 H        -4.107558        -1.229143         0.466269
 H        -3.054189        -2.033607        -0.859427
 H        -1.786866        -0.522831         1.619045
 H        -2.444071         1.129008        -0.499048
 H        -1.701561        -1.117903        -1.823163
 H        -0.279141         0.073853        -2.089007
 H         0.823860        -2.437177        -0.843467
 H         0.945591        -2.469143         0.980856
 H        -0.338791        -3.395185         0.148448
