19
Iteration:  1078charge 0 multiplicity 1
 C        -3.214937        -1.514292         0.774076
 C        -1.966122        -0.691160         0.720706
 C        -1.678963         0.497337        -0.214243
 C        -1.133800        -0.583926        -1.197916
 C        -0.554648        -1.255433         0.050713
 C         0.117091        -2.612828         0.202482
 C         0.298113        -0.083848         0.477938
 O         1.477187         0.054928         0.659691
 O        -0.511060         1.061244         0.376289
 H        -3.084552        -2.630887         0.903788
 H        -3.728906        -1.308927         1.729355
 H        -3.973190        -1.402711        -0.010028
 H        -1.917555        -0.271538         1.729600
 H        -2.448450         1.247452        -0.510371
 H        -1.944118        -1.047403        -1.724443
 H        -0.315013        -0.356377        -1.950246
 H        -0.436662        -3.562182         0.247079
 H         0.871570        -2.737743        -0.741331
 H         0.813496        -2.521794         1.009480
