19
Iteration:  1300
 C        -3.123266        -1.680016         0.535697
 C        -1.941661        -0.783181         0.717621
 C        -1.678738         0.492688        -0.284110
 C        -1.080134        -0.563393        -1.316992
 C        -0.559308        -1.183873         0.004422
 C        -0.013323        -2.544414         0.387503
 C         0.301107         0.022033         0.524978
 O         1.449501         0.028989         0.923614
 O        -0.461337         1.099117         0.318658
 H        -3.913458        -1.189035         0.025378
 H        -2.945565        -2.709799         0.125603
 H        -3.691423        -1.823074         1.447856
 H        -1.771982        -0.463539         1.708727
 H        -2.460726         1.188861        -0.554334
 H        -2.020477        -1.062958        -1.763984
 H        -0.488161        -0.073242        -2.066009
 H        -0.682507        -3.110622         1.120218
 H        -0.058981        -3.188481        -0.426565
 H         1.067969        -2.397241         0.706553
