19
Iteration:  1197charge 0 multiplicity 1
 C        -3.214152        -1.424022         0.802923
 C        -1.923005        -0.788610         0.731287
 C        -1.675735         0.430438        -0.231858
 C        -1.075283        -0.588161        -1.335599
 C        -0.618315        -1.278132        -0.036315
 C         0.162068        -2.539618         0.144352
 C         0.301314        -0.053294         0.430087
 O         1.363248         0.039563         0.970949
 O        -0.514585         1.059327         0.321342
 H        -3.284785        -2.416413         0.181179
 H        -3.452623        -1.658266         1.879849
 H        -4.075668        -0.717513         0.650152
 H        -1.451947        -0.577439         1.721145
 H        -2.411913         1.105627        -0.726720
 H        -1.807403        -1.148449        -1.856688
 H        -0.213420        -0.441571        -2.049409
 H         1.079777        -2.392098        -0.394495
 H         0.448092        -2.726420         1.245350
 H        -0.203261        -3.378014        -0.355358
