19
Iteration:  2568charge 0 multiplicity 1
 C        -3.094721        -1.721291         0.104913
 C        -1.996528        -0.664590         0.528575
 C        -1.511405         0.446812        -0.660147
 C        -0.737028        -0.670013        -1.360048
 C        -0.584061        -1.203499         0.198083
 C         0.032053        -2.510775         0.576891
 C         0.158465        -0.021732         0.688324
 O         1.057825         0.093328         1.528685
 O        -0.486741         1.106744         0.209453
 H        -2.628727        -2.445397        -0.633509
 H        -3.528814        -2.369703         0.877573
 H        -3.848661        -1.033791        -0.403642
 H        -2.158811        -0.193686         1.477026
 H        -2.070799         1.262500        -1.050339
 H        -1.394350        -1.259995        -1.992594
 H         0.196910        -0.264806        -1.773584
 H        -0.546279        -3.324058         0.381055
 H         0.904384        -2.663030        -0.112559
 H         0.415516        -2.429135         1.551988
