19
Iteration:  2451charge 0 multiplicity 1
 C        -3.165587        -1.599824        -0.088287
 C        -2.109690        -0.722064         0.467571
 C        -1.568900         0.505402        -0.563393
 C        -0.757443        -0.730725        -1.290895
 C        -0.619220        -1.259198         0.224114
 C         0.165288        -2.536772         0.707194
 C         0.192359         0.040019         0.727137
 O         1.144107         0.064585         1.427852
 O        -0.478095         1.120333         0.203062
 H        -3.016689        -1.803666        -1.141255
 H        -3.186642        -2.532552         0.423723
 H        -4.112563        -1.166376         0.053153
 H        -2.167265        -0.524013         1.552963
 H        -2.280887         1.266640        -0.861653
 H        -1.333852        -1.428165        -1.969307
 H         0.187460        -0.403750        -1.733127
 H         0.204694        -3.273327        -0.144568
 H         1.250825        -2.170042         0.874142
 H        -0.162824        -2.944872         1.696082
