19
Iteration:  3626
 C        -3.009300        -1.782241         0.166159
 C        -1.914906        -0.777338         0.532496
 C        -1.722750         0.486659        -0.203331
 C        -1.014188        -0.446681        -1.396219
 C        -0.539778        -1.164469        -0.035931
 C         0.153626        -2.467758         0.193014
 C         0.184105         0.010942         0.676195
 O         1.224004        -0.040118         1.315288
 O        -0.548431         1.128063         0.532014
 H        -3.805962        -1.673762         0.907497
 H        -3.284281        -1.798000        -0.982411
 H        -2.616507        -2.797853         0.341708
 H        -1.809487        -0.731272         1.604966
 H        -2.514516         1.249049        -0.373188
 H        -1.758784        -1.017179        -1.918455
 H        -0.150209        -0.123831        -2.114332
 H         1.201987        -2.250164         0.053253
 H         0.039799        -2.904806         1.204206
 H        -0.071555        -3.326722        -0.416256
