19
Iteration:  1145charge 0 multiplicity 1
 C        -3.047058        -1.749381         0.573599
 C        -1.858696        -0.596974         0.834182
 C        -1.623768         0.496255        -0.153023
 C        -1.339677        -0.683378        -1.162557
 C        -0.621686        -1.184017         0.127287
 C        -0.074120        -2.547976         0.159680
 C         0.347790        -0.006667         0.434852
 O         1.451422         0.067191         0.902092
 O        -0.393054         1.110466         0.186790
 H        -2.754033        -2.689763         0.138263
 H        -3.634724        -2.012675         1.485939
 H        -3.618791        -1.144846        -0.098456
 H        -1.626340        -0.213328         1.816382
 H        -2.377871         1.317524        -0.348896
 H        -2.158080        -1.167579        -1.639927
 H        -0.573933        -0.516259        -1.974973
 H         0.537517        -2.709934         1.064753
 H        -0.922466        -3.374510         0.152966
 H         0.501532        -2.723185        -0.756060
