19
Iteration:   817charge 0 multiplicity 1
 C        -3.026706        -1.655137         0.926299
 C        -1.803467        -0.705038         0.961361
 C        -1.756109         0.484965        -0.096801
 C        -1.325913        -0.504565        -1.236888
 C        -0.582800        -1.250362        -0.014983
 C        -0.104863        -2.654414         0.270922
 C         0.346423        -0.068993         0.286606
 O         1.466101         0.112467         0.687705
 O        -0.385851         1.093297         0.071294
 H        -2.763074        -2.730443         1.148503
 H        -3.659725        -1.384282         1.754418
 H        -3.534578        -1.511621        -0.033287
 H        -1.479897        -0.350644         1.958961
 H        -2.455989         1.284090        -0.237908
 H        -2.187975        -1.038099        -1.773377
 H        -0.686161        -0.093218        -2.035184
 H        -0.129788        -3.254974        -0.687802
 H         0.979456        -2.485287         0.597634
 H        -0.625201        -3.146222         1.018136
