19
Iteration:  4877charge 0 multiplicity 1
 C        -3.033540        -1.746238        -0.017639
 C        -1.994431        -0.877255         0.516184
 C        -1.769397         0.486694        -0.158075
 C        -0.785221        -0.443727        -1.127824
 C        -0.501371        -1.171885         0.110896
 C         0.044627        -2.622782         0.072036
 C         0.256853         0.049240         0.750030
 O         1.411468         0.221264         1.016584
 O        -0.751136         0.994614         0.718570
 H        -3.112404        -2.747677         0.336624
 H        -4.070074        -1.501015         0.234366
 H        -3.105898        -1.716255        -1.067942
 H        -2.055556        -0.774668         1.566467
 H        -2.471112         1.290688        -0.410242
 H        -1.274976        -0.923322        -1.981736
 H        -0.003181         0.108661        -1.655191
 H        -0.792396        -3.359926        -0.193715
 H         1.031867        -2.859778        -0.408471
 H         0.364365        -2.716689         1.126196
