19
Iteration:  4159charge 0 multiplicity 1
 C        -3.051076        -1.882991        -0.027572
 C        -2.037708        -0.886018         0.647323
 C        -1.782593         0.433931        -0.047120
 C        -0.913653        -0.284541        -1.255848
 C        -0.596755        -1.134287         0.072571
 C         0.161940        -2.402905         0.218652
 C         0.294718        -0.022928         0.643558
 O         1.468442        -0.012411         0.916281
 O        -0.721238         1.081542         0.707807
 H        -3.361068        -2.817608         0.509706
 H        -4.080745        -1.278718        -0.119100
 H        -2.734201        -2.153075        -1.077045
 H        -1.880121        -0.808265         1.775200
 H        -2.578245         1.103920        -0.322908
 H        -1.720272        -0.748874        -1.852489
 H         0.005535         0.168126        -1.863708
 H         1.250989        -2.202094         0.246533
 H         0.006236        -2.724815         1.232446
 H        -0.076630        -3.151524        -0.481856
