19
Iteration:  3412
 C        -3.187295        -1.738406         0.117231
 C        -1.999285        -0.856957         0.536209
 C        -1.631492         0.422173        -0.347098
 C        -0.772530        -0.466764        -1.195823
 C        -0.547411        -1.204145         0.107234
 C         0.043375        -2.578079         0.234646
 C         0.244703         0.006890         0.721007
 O         1.361355         0.154148         1.131321
 O        -0.654824         1.122811         0.512303
 H        -3.491429        -1.593620        -0.971909
 H        -2.847004        -2.797168         0.315410
 H        -4.077875        -1.522743         0.759065
 H        -1.974037        -0.654746         1.679129
 H        -2.339749         1.154247        -0.705864
 H        -1.537519        -1.170654        -1.694845
 H         0.076297         0.018790        -1.712092
 H         1.053824        -2.429401         0.596314
 H        -0.407131        -3.013380         1.102470
 H         0.125752        -3.096378        -0.699695
