19
Iteration:  1482charge 0 multiplicity 1
 C        -3.242936        -1.563073         0.360346
 C        -1.950369        -0.778622         0.651910
 C        -1.655202         0.341259        -0.315340
 C        -0.954606        -0.642554        -1.289628
 C        -0.466255        -1.224866         0.095023
 C         0.052304        -2.689509         0.296002
 C         0.302864         0.046908         0.603704
 O         1.312647         0.202787         1.220879
 O        -0.481195         1.168505         0.201851
 H        -3.137528        -2.634726         0.325448
 H        -3.916249        -1.294902         1.216401
 H        -3.793702        -1.156538        -0.473302
 H        -1.830773        -0.446858         1.719389
 H        -2.396853         1.038830        -0.634813
 H        -1.761020        -1.370764        -1.683243
 H        -0.299558        -0.291535        -2.077092
 H        -0.767948        -3.225311         0.830364
 H         0.285040        -3.359721        -0.647236
 H         0.982568        -2.726858         0.874245
