19
Iteration:  4362charge 0 multiplicity 1
 C        -3.084826        -1.774372         0.056845
 C        -1.917081        -0.887032         0.645431
 C        -1.747637         0.458684        -0.186824
 C        -0.951296        -0.400991        -1.156662
 C        -0.460694        -1.186185         0.062088
 C         0.115518        -2.580339        -0.026264
 C         0.310071         0.029110         0.685850
 O         1.309167         0.165159         1.259975
 O        -0.675331         1.092342         0.577804
 H        -3.013134        -2.897536         0.199244
 H        -4.100558        -1.576269         0.438956
 H        -3.208758        -1.525949        -1.059796
 H        -1.993034        -0.813741         1.739104
 H        -2.423891         1.086811        -0.759537
 H        -1.539701        -1.050256        -1.773884
 H        -0.236963        -0.016879        -1.868044
 H        -0.151077        -3.063941        -1.003881
 H         1.223053        -2.448312         0.059955
 H        -0.179222        -3.373814         0.721486
