19
Iteration:  3503
 C        -3.097778        -1.770674         0.075280
 C        -2.007177        -0.804799         0.632370
 C        -1.810461         0.495431        -0.279802
 C        -0.979874        -0.431052        -1.289651
 C        -0.552182        -1.186575         0.005996
 C         0.284448        -2.483112         0.250573
 C         0.222602         0.023786         0.672170
 O         1.253838        -0.046437         1.308019
 O        -0.507920         1.116691         0.427431
 H        -2.912084        -2.862641         0.322097
 H        -3.940543        -1.578110         0.744540
 H        -3.333889        -1.771413        -1.027864
 H        -2.150022        -0.646452         1.733039
 H        -2.485488         1.351503        -0.441984
 H        -1.574715        -0.915769        -2.105311
 H        -0.087276         0.133785        -1.642748
 H         1.098196        -2.749834        -0.400707
 H         0.715807        -2.493915         1.175688
 H        -0.295839        -3.368941         0.122348
