19
Iteration:  4500charge 0 multiplicity 1
 C        -3.112365        -1.712092         0.317114
 C        -1.901478        -0.829671         0.563022
 C        -1.705217         0.379256        -0.271414
 C        -0.886962        -0.418307        -1.340286
 C        -0.430812        -1.165288        -0.063451
 C         0.197286        -2.515451        -0.188663
 C         0.230747         0.018241         0.660955
 O         1.127897         0.069244         1.529931
 O        -0.643970         1.069377         0.593456
 H        -2.934069        -2.648233         0.821206
 H        -4.113004        -1.384645         0.521030
 H        -2.965190        -1.945315        -0.758883
 H        -1.757045        -0.526282         1.621163
 H        -2.541198         1.089010        -0.494838
 H        -1.528384        -1.005952        -2.052957
 H        -0.087972         0.015612        -2.004956
 H        -0.616284        -3.289450        -0.285763
 H         0.894759        -2.555521        -1.087203
 H         0.889595        -2.707660         0.685658
