19
Iteration:  4905charge 0 multiplicity 1
 C        -3.167344        -1.788725        -0.057380
 C        -2.000623        -0.965790         0.574677
 C        -1.673648         0.421484        -0.161240
 C        -0.923711        -0.285040        -1.245412
 C        -0.479523        -1.168575         0.132669
 C         0.095054        -2.587727         0.191447
 C         0.227563         0.089958         0.744316
 O         1.414829         0.193607         1.095383
 O        -0.615430         1.004167         0.631391
 H        -3.181361        -2.912793         0.242159
 H        -4.277041        -1.698999         0.068420
 H        -2.952481        -1.911016        -1.180686
 H        -1.993402        -0.924914         1.751056
 H        -2.371440         1.230642        -0.424912
 H        -1.721566        -0.621334        -1.942814
 H        -0.165847         0.309827        -1.837603
 H        -0.694892        -3.264247        -0.101576
 H         0.888236        -2.742381        -0.502165
 H         0.438273        -2.872408         1.208668
