19
Iteration:  1352
 C        -3.288962        -1.533046         0.486653
 C        -2.011727        -0.748813         0.695407
 C        -1.665728         0.429669        -0.332773
 C        -0.965857        -0.668152        -1.189572
 C        -0.564455        -1.219436         0.199167
 C         0.109995        -2.543793         0.185664
 C         0.314598        -0.030574         0.600328
 O         1.468063         0.095745         0.956775
 O        -0.538316         1.109905         0.271648
 H        -4.225466        -1.097940         0.864378
 H        -3.416948        -1.755853        -0.655171
 H        -3.271908        -2.527905         0.986931
 H        -1.833730        -0.431277         1.756353
 H        -2.467502         1.053270        -0.679966
 H        -1.724296        -1.423117        -1.496989
 H        -0.269272        -0.408014        -1.956816
 H         0.980457        -2.423593         0.846622
 H        -0.479901        -3.240049         0.766365
 H         0.394246        -2.923873        -0.791138
