19
Iteration:  3920charge 0 multiplicity 1
 C        -3.023239        -1.815580        -0.073697
 C        -1.962651        -0.848403         0.605476
 C        -1.732590         0.510235        -0.096354
 C        -0.961147        -0.366330        -1.189101
 C        -0.541600        -1.187240         0.112218
 C         0.172824        -2.509381         0.205787
 C         0.238224        -0.019763         0.656405
 O         1.398523         0.066581         0.921479
 O        -0.701437         1.078482         0.754997
 H        -3.023138        -2.896904         0.014196
 H        -4.033803        -1.558261         0.328545
 H        -3.164414        -1.636965        -1.131697
 H        -2.125628        -0.938023         1.716891
 H        -2.529269         1.237944        -0.243442
 H        -1.585643        -0.844646        -1.957154
 H        -0.211432         0.172046        -1.853826
 H         1.259271        -2.662067        -0.337027
 H         0.224586        -2.764816         1.318313
 H        -0.553243        -3.250638        -0.272264
