19
Iteration:  1706charge 0 multiplicity 1
 C        -3.205127        -1.568506         0.312262
 C        -1.932989        -0.741641         0.544741
 C        -1.660947         0.406240        -0.480879
 C        -0.867425        -0.537261        -1.346894
 C        -0.451078        -1.208408         0.041079
 C         0.104717        -2.628736         0.495546
 C         0.212083         0.000813         0.639052
 O         1.142794         0.052782         1.418011
 O        -0.476757         1.125629         0.143308
 H        -3.863315        -1.171356         1.034015
 H        -3.576482        -1.680076        -0.658420
 H        -3.036832        -2.553236         0.753974
 H        -1.913192        -0.396095         1.578677
 H        -2.228600         1.061967        -1.115748
 H        -1.523420        -1.138024        -1.940910
 H         0.019262        -0.249891        -1.923700
 H        -0.721419        -3.380803         0.396358
 H         0.987029        -2.974576        -0.079394
 H         0.494948        -2.700564         1.554219
