19
Iteration:  4542
 C        -3.045449        -1.922698         0.346512
 C        -1.991211        -0.844094         0.607040
 C        -1.760144         0.456616        -0.300298
 C        -0.918969        -0.315116        -1.368169
 C        -0.570206        -1.103199        -0.127877
 C         0.244820        -2.392766        -0.034706
 C         0.217656         0.042150         0.659905
 O         1.131561        -0.140170         1.517921
 O        -0.494659         1.126705         0.438642
 H        -2.547487        -2.841535         0.613800
 H        -3.929436        -1.641150         0.898055
 H        -3.468885        -1.934632        -0.629209
 H        -2.046066        -0.475442         1.568287
 H        -2.420899         1.343458        -0.302689
 H        -1.687650        -0.912846        -1.976520
 H        -0.036324         0.141689        -1.901641
 H        -0.115433        -3.170341        -0.807100
 H         1.376260        -2.268155        -0.115538
 H         0.247298        -2.742037         1.012349
