19
Iteration:  2881
 C        -3.052875        -1.628022         0.190007
 C        -1.909387        -0.678209         0.444351
 C        -1.557307         0.369917        -0.618212
 C        -0.775044        -0.746428        -1.408845
 C        -0.464192        -1.218011         0.099830
 C         0.039890        -2.537192         0.432977
 C         0.172695         0.047185         0.754653
 O         0.974193         0.201667         1.656685
 O        -0.496933         1.066136         0.232904
 H        -3.613109        -1.794470         1.165260
 H        -3.830852        -1.292117        -0.507651
 H        -2.711941        -2.623002        -0.144364
 H        -2.005860        -0.202148         1.447262
 H        -2.324751         1.007707        -0.990698
 H        -1.530881        -1.197837        -2.070494
 H         0.019762        -0.461161        -2.212435
 H        -0.573403        -3.317404         0.082934
 H         0.947921        -2.633246        -0.162504
 H         0.224422        -2.738313         1.476754
