19
Iteration:  3772charge 0 multiplicity 1
 C        -2.987378        -1.817715         0.335418
 C        -1.968635        -0.696794         0.579716
 C        -1.724127         0.518796        -0.281600
 C        -0.985800        -0.441128        -1.400050
 C        -0.447256        -1.092406        -0.123997
 C         0.277804        -2.442749         0.022003
 C         0.184617        -0.028603         0.687911
 O         1.154067        -0.121894         1.426627
 O        -0.618202         1.068625         0.526077
 H        -3.220847        -1.764209        -0.790211
 H        -2.953652        -2.834916         0.758413
 H        -4.030158        -1.452912         0.641999
 H        -1.852934        -0.466966         1.637153
 H        -2.371907         1.371290        -0.430318
 H        -1.679507        -1.247767        -1.865793
 H        -0.411418         0.100708        -2.126511
 H         1.016051        -2.579545        -0.832892
 H         0.826067        -2.569304         1.005030
 H        -0.404757        -3.361072        -0.016662
