19
Iteration:  2312charge 0 multiplicity 1
 C        -3.177600        -1.523001        -0.165649
 C        -1.991633        -0.779613         0.494258
 C        -1.543513         0.390739        -0.430551
 C        -0.801694        -0.711102        -1.355229
 C        -0.514816        -1.269072         0.131615
 C         0.106539        -2.523605         0.729041
 C         0.191885         0.051292         0.728715
 O         1.106456         0.155431         1.510467
 O        -0.457555         1.090774         0.147324
 H        -2.984646        -1.876270        -1.240605
 H        -3.337805        -2.567628         0.449770
 H        -4.156052        -0.977251        -0.122233
 H        -2.257877        -0.519524         1.535669
 H        -2.384705         0.973746        -0.602933
 H        -1.624774        -1.315292        -1.811561
 H        -0.001967        -0.330362        -1.913696
 H        -0.612998        -3.403911         0.741247
 H         0.881313        -2.937112         0.182614
 H         0.556152        -2.270097         1.715852
