19
Iteration:  3266charge 0 multiplicity 1
 C        -3.090924        -1.714333         0.073650
 C        -1.990967        -0.800829         0.543060
 C        -1.633631         0.372862        -0.348686
 C        -0.870507        -0.436343        -1.281900
 C        -0.522452        -1.201979         0.117477
 C         0.081135        -2.511352         0.291873
 C         0.202140         0.036458         0.692880
 O         1.203451         0.095061         1.346336
 O        -0.524682         1.044838         0.394591
 H        -3.912510        -1.921924         0.752323
 H        -3.548032        -1.311863        -0.841466
 H        -2.695396        -2.738077        -0.110081
 H        -2.092665        -0.539619         1.593115
 H        -2.444932         1.114300        -0.653112
 H        -1.369278        -0.962897        -2.068014
 H         0.010576        -0.043336        -1.783734
 H         0.356606        -2.987507        -0.624841
 H         0.981885        -2.340315         0.937248
 H        -0.559126        -3.102072         0.935521
