19
Iteration:   936
 C        -3.067544        -1.565758         0.848354
 C        -1.854859        -0.763241         0.915038
 C        -1.720268         0.419094        -0.182323
 C        -1.361668        -0.551317        -1.228776
 C        -0.630846        -1.183648         0.065833
 C         0.064664        -2.528858         0.091100
 C         0.335950        -0.021840         0.378697
 O         1.479252         0.018992         0.745808
 O        -0.406993         1.050986         0.206572
 H        -3.499307        -1.724183         1.853745
 H        -3.844871        -1.009632         0.373549
 H        -2.906386        -2.483670         0.290174
 H        -1.763704        -0.405398         1.930660
 H        -2.362277         1.286816        -0.268383
 H        -2.186414        -1.261913        -1.476094
 H        -0.732572        -0.319048        -2.099368
 H         0.801405        -2.418026         0.896778
 H        -0.689739        -3.316022         0.435384
 H         0.542996        -2.786650        -0.810311
