19
Iteration:  3888charge 0 multiplicity 1
 C        -3.093803        -1.921195         0.015889
 C        -2.014170        -0.848151         0.616568
 C        -1.798861         0.478483        -0.132559
 C        -1.002758        -0.229289        -1.306115
 C        -0.609198        -1.151457         0.038904
 C         0.233194        -2.413417         0.199632
 C         0.256408        -0.034390         0.654652
 O         1.445667        -0.040048         1.140915
 O        -0.587559         1.059965         0.590669
 H        -2.826418        -2.927925        -0.254498
 H        -3.895909        -1.954441         0.790131
 H        -3.708900        -1.584280        -0.795616
 H        -2.069715        -0.821465         1.744126
 H        -2.586921         1.231978        -0.156671
 H        -1.598924        -0.750619        -2.137890
 H        -0.179513         0.441300        -1.713999
 H         1.360135        -2.204949        -0.160293
 H         0.189870        -2.758299         1.272882
 H        -0.372614        -3.221843        -0.286439
