19
Iteration:  3368charge 0 multiplicity 1
 C        -3.074421        -1.722112         0.171704
 C        -1.928221        -0.832275         0.612417
 C        -1.648560         0.505567        -0.285986
 C        -1.032665        -0.525505        -1.341571
 C        -0.528182        -1.174257        -0.036940
 C         0.213128        -2.403781         0.252416
 C         0.220120         0.008045         0.696106
 O         1.150439        -0.063475         1.492235
 O        -0.500629         1.090321         0.241831
 H        -3.825067        -1.095868        -0.383204
 H        -2.751537        -2.623537        -0.424837
 H        -3.515506        -2.173857         1.061727
 H        -1.964892        -0.521858         1.703626
 H        -2.392705         1.188321        -0.646233
 H        -1.912363        -1.049908        -1.698182
 H        -0.268354        -0.130268        -2.011611
 H         1.265408        -2.201079         0.261646
 H        -0.034141        -2.707047         1.186244
 H         0.032995        -3.048718        -0.562502
