19
Iteration:  2427charge 0 multiplicity 1
 C        -3.095506        -1.590700        -0.006049
 C        -1.999086        -0.688840         0.517565
 C        -1.563158         0.362183        -0.531475
 C        -0.764026        -0.737280        -1.287795
 C        -0.400295        -1.204018         0.151364
 C         0.015250        -2.558086         0.533916
 C         0.196929         0.008150         0.739567
 O         1.047463         0.156730         1.600801
 O        -0.503672         1.121681         0.101017
 H        -2.985479        -2.043423        -0.988102
 H        -3.258587        -2.352487         0.708074
 H        -4.040261        -1.032809         0.028686
 H        -2.117725        -0.312216         1.529217
 H        -2.299674         1.104236        -0.978743
 H        -1.368687        -1.534033        -1.702039
 H         0.000811        -0.285111        -2.017709
 H        -0.203536        -3.141382        -0.347357
 H         1.152437        -2.697970         0.791325
 H        -0.575340        -2.912682         1.391923
