19
Iteration:  4448
 C        -3.025520        -1.875380        -0.023912
 C        -2.027947        -0.914417         0.617398
 C        -1.771280         0.479870        -0.135791
 C        -1.013597        -0.357178        -1.227675
 C        -0.501709        -1.139132         0.061585
 C         0.183115        -2.479434         0.024447
 C         0.200173         0.019708         0.670386
 O         1.341530         0.043779         1.263267
 O        -0.583656         1.082737         0.616888
 H        -3.317295        -2.612514         0.744803
 H        -3.770356        -1.148993        -0.284591
 H        -2.812577        -2.364076        -1.030439
 H        -2.201881        -0.613640         1.693788
 H        -2.322118         1.355779        -0.473669
 H        -1.543717        -0.925345        -1.961566
 H        -0.164418         0.142165        -1.643643
 H        -0.540901        -3.183425         0.160284
 H         0.758843        -2.702975        -0.839553
 H         0.953551        -2.443333         0.775962
