19
Iteration:  2945charge 0 multiplicity 1
 C        -3.111573        -1.689702        -0.102680
 C        -2.046710        -0.746318         0.455570
 C        -1.608654         0.440657        -0.526626
 C        -0.747019        -0.688329        -1.216558
 C        -0.566454        -1.210971         0.236760
 C         0.130081        -2.514276         0.559666
 C         0.151266        -0.002760         0.800674
 O         1.280771         0.154878         1.228994
 O        -0.629257         1.115827         0.427819
 H        -4.056368        -1.048789        -0.315671
 H        -2.817768        -2.286218        -1.054421
 H        -3.437522        -2.481530         0.623828
 H        -2.294502        -0.380713         1.430050
 H        -2.163042         1.261714        -1.022687
 H        -1.410348        -1.171440        -1.864498
 H         0.250486        -0.472934        -1.747776
 H        -0.472803        -3.370509         0.221198
 H         1.089084        -2.461357         0.131579
 H         0.161022        -2.636772         1.659056
