19
Iteration:  3377
 C        -3.057903        -1.685827         0.158826
 C        -1.940677        -0.744676         0.560686
 C        -1.736333         0.406331        -0.349222
 C        -1.028354        -0.482377        -1.290136
 C        -0.534352        -1.153073         0.005479
 C         0.200718        -2.435656         0.256375
 C         0.227568        -0.024702         0.705257
 O         1.198108        -0.041502         1.425780
 O        -0.494476         1.081983         0.329765
 H        -3.729299        -1.243627        -0.556143
 H        -2.693062        -2.631660        -0.366920
 H        -3.621906        -1.995961         1.011868
 H        -1.824683        -0.726742         1.634034
 H        -2.465491         1.155754        -0.665983
 H        -1.745083        -1.083402        -1.761067
 H        -0.441441        -0.086047        -2.134038
 H         1.213773        -2.038078         0.414877
 H        -0.076670        -2.937380         1.204663
 H         0.242118        -3.283121        -0.386764
