19
Iteration:  1729
 C        -3.125489        -1.643703         0.220641
 C        -1.930276        -0.709900         0.566770
 C        -1.596059         0.387292        -0.445465
 C        -0.878941        -0.734253        -1.336227
 C        -0.529543        -1.141214         0.086929
 C        -0.153919        -2.529553         0.417070
 C         0.304676         0.021955         0.681073
 O         1.260090         0.170482         1.410201
 O        -0.504038         1.086507         0.209837
 H        -3.822788        -1.842980         1.035087
 H        -3.541037        -1.392135        -0.708190
 H        -2.729742        -2.639159         0.046859
 H        -1.998980        -0.256805         1.547606
 H        -2.108826         1.215235        -0.873393
 H        -1.466612        -1.568487        -1.774224
 H        -0.048379        -0.451946        -1.962650
 H        -0.931991        -3.203488         0.800718
 H         0.471968        -2.917513        -0.434396
 H         0.681808        -2.516164         1.157814
