19
Iteration:  2172charge 0 multiplicity 1
 C        -3.205429        -1.579748         0.065827
 C        -2.048357        -0.715712         0.446075
 C        -1.533039         0.363434        -0.665974
 C        -0.758756        -0.684238        -1.290230
 C        -0.490978        -1.185966         0.119312
 C         0.125902        -2.482728         0.551515
 C         0.190452         0.066490         0.763237
 O         1.055404         0.047952         1.648336
 O        -0.466533         1.061768         0.145191
 H        -2.930629        -2.150301        -0.804202
 H        -3.303745        -2.224226         0.871001
 H        -4.073637        -0.993238        -0.049722
 H        -2.374624        -0.186343         1.355616
 H        -2.116621         1.040165        -1.185252
 H        -1.561437        -1.337274        -1.817860
 H         0.112970        -0.432464        -1.906412
 H        -0.121814        -3.422329        -0.103987
 H         1.201134        -2.476125         0.419667
 H         0.071302        -2.613578         1.697994
