19
Iteration:  1241
 C        -3.175480        -1.593261         0.673089
 C        -1.924915        -0.699363         0.790220
 C        -1.698050         0.440469        -0.274926
 C        -1.093481        -0.663953        -1.228201
 C        -0.550118        -1.202187         0.073966
 C         0.061407        -2.609505         0.139427
 C         0.305639         0.013282         0.484470
 O         1.409308         0.051649         0.986787
 O        -0.471580         1.103984         0.203017
 H        -3.575925        -1.681996        -0.414311
 H        -3.165708        -2.637303         1.118663
 H        -3.868297        -0.957748         1.314648
 H        -1.876727        -0.224826         1.835903
 H        -2.483710         1.232217        -0.374808
 H        -1.772161        -1.122908        -1.894191
 H        -0.411560        -0.105130        -1.925981
 H        -0.122274        -3.131267        -0.779162
 H         1.208096        -2.537442         0.297041
 H        -0.338623        -3.213568         0.918824
