19
Iteration:  2493
 C        -3.251463        -1.623982        -0.082031
 C        -1.993256        -0.767921         0.359640
 C        -1.588753         0.438630        -0.542705
 C        -0.550701        -0.691586        -1.296327
 C        -0.538220        -1.215506         0.231611
 C        -0.019021        -2.638789         0.756373
 C         0.191661         0.043362         0.760436
 O         1.292697         0.145599         1.251894
 O        -0.678663         1.193521         0.391139
 H        -3.279652        -1.766285        -1.165795
 H        -3.286565        -2.545595         0.422044
 H        -4.136778        -1.090224         0.265513
 H        -2.270580        -0.469833         1.347980
 H        -2.107807         1.092262        -1.245325
 H        -0.934382        -1.488883        -2.002526
 H         0.426092        -0.316838        -1.750548
 H        -0.514088        -3.401928         0.147673
 H         1.130671        -2.793504         0.661597
 H        -0.171340        -2.828269         1.834796
