19
Iteration:  1280charge 0 multiplicity 1
 C        -3.064882        -1.718664         0.456842
 C        -1.885785        -0.634277         0.762567
 C        -1.762047         0.429310        -0.231793
 C        -1.284833        -0.559233        -1.246391
 C        -0.495842        -1.158921         0.126316
 C        -0.085861        -2.607660         0.276189
 C         0.385830         0.027485         0.468939
 O         1.482763         0.029787         1.005618
 O        -0.433836         1.125936         0.217191
 H        -3.754555        -1.550229        -0.332713
 H        -2.625197        -2.662017         0.327567
 H        -3.712340        -1.761743         1.307010
 H        -2.066057        -0.205591         1.728021
 H        -2.455010         1.245478        -0.433706
 H        -1.840254        -1.420064        -1.677300
 H        -0.425902        -0.280618        -1.840780
 H        -0.966595        -3.298295         0.380151
 H         0.486194        -3.005739        -0.524722
 H         0.598845        -2.545511         1.179912
