19
Iteration:  3109
 C        -3.105656        -1.668693         0.211304
 C        -1.940073        -0.739266         0.537403
 C        -1.603992         0.439517        -0.485917
 C        -0.910463        -0.630867        -1.368066
 C        -0.472446        -1.247048        -0.036784
 C         0.248837        -2.442790         0.297273
 C         0.197953         0.045272         0.670723
 O         0.951954        -0.028764         1.632365
 O        -0.466088         1.158235         0.288037
 H        -2.908043        -2.719708         0.386965
 H        -3.946051        -1.284715         0.713925
 H        -3.298321        -1.693398        -0.824915
 H        -1.961103        -0.431833         1.562135
 H        -2.274083         1.190576        -0.744154
 H        -1.650724        -1.110628        -1.942390
 H        -0.156054        -0.254398        -2.034410
 H        -0.518327        -3.229741         0.480950
 H         0.912500        -2.835201        -0.494228
 H         0.737029        -2.437438         1.311199
