19
Iteration:  2572charge 0 multiplicity 1
 C        -3.094003        -1.663014         0.123490
 C        -2.023269        -0.669404         0.528701
 C        -1.521804         0.458423        -0.625406
 C        -0.702669        -0.670402        -1.407161
 C        -0.576994        -1.201431         0.142592
 C         0.076956        -2.480318         0.584204
 C         0.175056        -0.037216         0.685166
 O         1.053134         0.075131         1.562647
 O        -0.523932         1.064466         0.201037
 H        -2.675925        -2.365538        -0.542958
 H        -3.463052        -2.264720         0.947496
 H        -3.844932        -1.126936        -0.362318
 H        -2.184148        -0.101788         1.464749
 H        -2.192166         1.216104        -1.073322
 H        -1.383527        -1.338522        -2.047591
 H         0.229075        -0.366704        -1.855501
 H        -0.566104        -3.430981         0.380051
 H         0.889754        -2.560140        -0.122929
 H         0.403826        -2.395791         1.664507
