19
Iteration:  2127
 C        -3.342046        -1.524196         0.173428
 C        -2.016349        -0.670654         0.345521
 C        -1.472286         0.363007        -0.701952
 C        -0.531156        -0.681643        -1.337919
 C        -0.477797        -1.227307         0.207029
 C         0.133681        -2.657780         0.432795
 C         0.167176         0.010859         0.843048
 O         1.073968         0.251582         1.615687
 O        -0.642629         0.985214         0.219784
 H        -3.425225        -2.001572        -0.783218
 H        -3.433246        -2.249732         0.954001
 H        -4.069663        -0.788483         0.339187
 H        -2.056002        -0.130895         1.321186
 H        -1.833535         1.069142        -1.371862
 H        -0.927828        -1.360381        -2.170070
 H         0.348527        -0.062613        -1.665536
 H        -0.760456        -3.420526         0.406666
 H         0.780323        -3.066131        -0.357910
 H         0.618661        -2.784905         1.470011
