19
Iteration:   651charge 0 multiplicity 1
 C        -3.033128        -1.701351         1.017743
 C        -1.860597        -0.676264         0.982558
 C        -1.790766         0.478118        -0.104498
 C        -1.338252        -0.460684        -1.150114
 C        -0.625377        -1.156890         0.080610
 C        -0.068449        -2.546394         0.231341
 C         0.372227        -0.068139         0.336562
 O         1.568403        -0.045705         0.424915
 O        -0.395753         1.096495         0.097922
 H        -3.134061        -2.173461         2.009207
 H        -3.988367        -1.194861         0.780213
 H        -3.049102        -2.495673         0.249881
 H        -1.678638        -0.150308         1.958861
 H        -2.448748         1.376306        -0.279350
 H        -2.077948        -1.228194        -1.504812
 H        -0.833005        -0.152432        -2.126539
 H        -0.468173        -3.152375         1.077881
 H        -0.194893        -3.196500        -0.703113
 H         0.946538        -2.527912         0.449305
