19
Iteration:  2481
 C        -3.271715        -1.608206        -0.072245
 C        -2.116717        -0.783908         0.361351
 C        -1.539310         0.302975        -0.660558
 C        -0.607563        -0.636345        -1.227907
 C        -0.518563        -1.216635         0.231235
 C         0.038700        -2.506931         0.746478
 C         0.186938         0.083608         0.739146
 O         1.304595         0.076298         1.285788
 O        -0.607419         1.124210         0.398604
 H        -3.398971        -1.784593        -1.160735
 H        -3.245076        -2.600211         0.334039
 H        -4.205965        -1.051402         0.230948
 H        -2.215669        -0.370100         1.336578
 H        -2.192465         1.116883        -1.042739
 H        -1.218530        -1.235397        -1.915267
 H         0.344047        -0.163667        -1.684595
 H        -0.211901        -3.342361         0.139387
 H         1.183018        -2.392696         0.707765
 H        -0.367522        -2.661929         1.741649
