19
Iteration:  3292
 C        -3.141509        -1.778891         0.290373
 C        -1.974108        -0.756476         0.425469
 C        -1.596821         0.462482        -0.434307
 C        -0.749534        -0.478257        -1.294833
 C        -0.451304        -1.210924         0.053936
 C         0.047477        -2.672654         0.097222
 C         0.224909         0.078880         0.775742
 O         1.206454         0.122421         1.510531
 O        -0.650298         1.144898         0.359899
 H        -3.759005        -1.744039         1.201133
 H        -3.794574        -1.651404        -0.627111
 H        -2.845559        -2.801457         0.438013
 H        -1.959301        -0.499349         1.524050
 H        -2.329493         1.048688        -0.914605
 H        -1.283065        -1.055116        -2.069169
 H         0.109140         0.011229        -1.851958
 H         0.374629        -3.136003        -0.826289
 H         0.774725        -2.630631         0.814462
 H        -0.810411        -3.202331         0.475132
