19
Iteration:  3953
 C        -3.178063        -1.824591         0.053693
 C        -1.976030        -0.934806         0.591846
 C        -1.711204         0.439055        -0.160776
 C        -0.871350        -0.352107        -1.118667
 C        -0.466186        -1.203808         0.136975
 C         0.065330        -2.563958        -0.016681
 C         0.296541        -0.031900         0.744402
 O         1.384252         0.283913         1.015803
 O        -0.650223         1.030446         0.640124
 H        -3.502806        -2.623679         0.701099
 H        -3.913456        -1.008267         0.002545
 H        -2.951279        -2.107340        -0.949520
 H        -1.989911        -0.773385         1.706827
 H        -2.508989         1.134128        -0.358418
 H        -1.493492        -0.915476        -1.828482
 H        -0.127156         0.311969        -1.523949
 H         1.079514        -2.875780        -0.552018
 H         0.185002        -2.943020         1.065185
 H        -0.739737        -3.220695        -0.474378
