19
Iteration:  2209charge 0 multiplicity 1
 C        -2.974040        -1.703301        -0.031403
 C        -1.930837        -0.796784         0.493590
 C        -1.582074         0.403117        -0.473605
 C        -0.766660        -0.579179        -1.304791
 C        -0.527239        -1.196058         0.159763
 C        -0.148969        -2.596919         0.704262
 C         0.214524         0.063530         0.658448
 O         1.095910         0.135866         1.482120
 O        -0.459466         1.146953         0.139964
 H        -2.713524        -2.243933        -0.968214
 H        -3.316925        -2.469478         0.707218
 H        -3.940840        -1.171583        -0.291681
 H        -2.069867        -0.422284         1.538493
 H        -2.251636         1.157147        -1.069877
 H        -1.483676        -1.030443        -1.948983
 H         0.115838        -0.328385        -1.929063
 H        -0.423820        -3.358405         0.015433
 H         0.957589        -2.625009         1.010020
 H        -0.783893        -2.821212         1.554996
