19
Iteration:  1976charge 0 multiplicity 1
 C        -3.256112        -1.579167        -0.127910
 C        -1.980824        -0.745654         0.521163
 C        -1.618761         0.402805        -0.535929
 C        -0.763069        -0.801109        -1.167268
 C        -0.445083        -1.209504         0.238872
 C         0.076243        -2.652429         0.496177
 C         0.234980         0.117068         0.786459
 O         1.180241         0.220177         1.543791
 O        -0.499708         1.118409         0.117667
 H        -3.200266        -1.671791        -1.225015
 H        -3.539430        -2.541697         0.350177
 H        -4.077228        -0.772642         0.016175
 H        -2.218043        -0.365384         1.535430
 H        -2.286942         1.130630        -0.956726
 H        -1.470037        -1.578850        -1.474441
 H        -0.060310        -0.542055        -1.978981
 H         0.188469        -3.261033        -0.440882
 H         1.041140        -2.565684         0.912995
 H        -0.543119        -3.286760         1.191486
