19
Iteration:  1939charge 0 multiplicity 1
 C        -3.161590        -1.632687         0.195430
 C        -2.018669        -0.642236         0.407548
 C        -1.491480         0.449730        -0.659663
 C        -0.701650        -0.645984        -1.305015
 C        -0.612037        -1.207068         0.092825
 C         0.115683        -2.521911         0.613307
 C         0.130344        -0.044547         0.703278
 O         1.026503         0.029968         1.504653
 O        -0.483289         1.099009         0.177989
 H        -3.409007        -1.730492        -0.859950
 H        -2.873262        -2.653023         0.481311
 H        -4.032972        -1.468352         0.727932
 H        -1.982314        -0.163366         1.405830
 H        -2.123452         1.341845        -0.975031
 H        -1.140370        -1.418755        -1.953510
 H         0.330923        -0.374693        -1.729687
 H         0.735708        -2.969616        -0.187926
 H         0.869462        -2.126261         1.456498
 H        -0.518390        -3.226047         1.180992
