19
Iteration:  3050
 C        -3.238873        -1.682124         0.247153
 C        -2.024878        -0.786898         0.471491
 C        -1.528153         0.404438        -0.489841
 C        -0.670092        -0.625466        -1.257307
 C        -0.496240        -1.179364         0.151730
 C         0.101266        -2.560552         0.233879
 C         0.212254         0.001994         0.732471
 O         1.135856         0.194274         1.513981
 O        -0.584156         1.078915         0.231557
 H        -3.068814        -2.506777        -0.371681
 H        -3.719967        -2.147529         1.123758
 H        -4.009906        -1.051367        -0.190326
 H        -2.123323        -0.482321         1.574755
 H        -2.323323         1.208560        -0.829243
 H        -1.204165        -1.309239        -1.944356
 H         0.161056        -0.103914        -1.760814
 H        -0.420397        -2.996409        -0.675236
 H         1.153567        -2.438876        -0.092842
 H         0.148656        -3.066192         1.215164
