19
Iteration:  4321
 C        -3.079683        -1.833896         0.324506
 C        -1.989971        -0.889593         0.607367
 C        -1.673445         0.474639        -0.314757
 C        -0.987625        -0.328249        -1.290566
 C        -0.484972        -1.164782        -0.026945
 C         0.228189        -2.486014        -0.085728
 C         0.270704        -0.040540         0.648977
 O         1.192888         0.013218         1.483651
 O        -0.614247         1.135486         0.424995
 H        -2.828430        -2.915228         0.286531
 H        -3.774127        -1.752774         1.180012
 H        -3.563995        -1.571925        -0.602697
 H        -1.866604        -0.651340         1.655474
 H        -2.395850         1.246495        -0.461909
 H        -1.708401        -0.952433        -1.890331
 H        -0.282047         0.345411        -1.936845
 H         0.613049        -3.019999        -1.069023
 H         1.187042        -2.272201         0.490940
 H        -0.355901        -3.275128         0.509598
