19
Iteration:    79
 C        -2.874897        -1.489113         1.395849
 C        -1.566971        -0.698535         1.169056
 C        -1.726090         0.519481         0.193740
 C        -1.737671        -0.594717        -0.906707
 C        -0.668979        -1.227109        -0.070929
 C        -0.105639        -2.646653        -0.116179
 C         0.406874        -0.068579        -0.022981
 O         1.575926         0.033782         0.177947
 O        -0.438816         1.073064         0.038157
 H        -2.791216        -1.611639         2.482080
 H        -3.732503        -0.942169         1.097082
 H        -2.870300        -2.482054         0.917543
 H        -1.090624        -0.474644         2.108801
 H        -2.541468         1.274658         0.293617
 H        -2.707601        -1.130523        -0.922578
 H        -1.419518        -0.444961        -1.946437
 H         0.348384        -2.997516        -0.978953
 H         0.597589        -2.729581         0.710145
 H        -1.000648        -3.369483         0.068172
