19
Iteration:  3499charge 0 multiplicity 1
 C        -3.070388        -1.783046         0.054616
 C        -2.031165        -0.812017         0.617628
 C        -1.827589         0.505969        -0.302377
 C        -0.991525        -0.422869        -1.216805
 C        -0.540391        -1.194434        -0.009030
 C         0.250404        -2.475209         0.267671
 C         0.245697         0.027586         0.659579
 O         1.303017        -0.044622         1.301753
 O        -0.523401         1.111260         0.426594
 H        -2.925630        -2.910790         0.178447
 H        -3.942420        -1.678808         0.734253
 H        -3.356189        -1.637706        -1.034965
 H        -2.074294        -0.583703         1.757942
 H        -2.516382         1.353678        -0.421016
 H        -1.600792        -0.921886        -2.130133
 H        -0.181752         0.151314        -1.695959
 H         1.136854        -2.645366        -0.413444
 H         0.623716        -2.552727         1.403089
 H        -0.371485        -3.453837         0.161850
