19
Iteration:  3751
 C        -3.061561        -1.811758         0.160502
 C        -1.944092        -0.858990         0.542378
 C        -1.701308         0.440862        -0.228952
 C        -1.031855        -0.312331        -1.308262
 C        -0.514264        -1.145156        -0.025104
 C         0.179476        -2.436064         0.179582
 C         0.231346        -0.002266         0.675476
 O         1.255064        -0.080851         1.326798
 O        -0.576349         1.127549         0.466714
 H        -3.597193        -1.614480        -0.833801
 H        -2.602760        -2.790784         0.289249
 H        -3.781494        -1.812158         1.030082
 H        -1.925946        -0.724469         1.641660
 H        -2.519279         1.125969        -0.378365
 H        -1.686953        -0.739533        -2.115018
 H        -0.309638         0.176573        -1.896277
 H         0.954954        -2.592614        -0.702758
 H         0.765916        -2.454886         1.179278
 H        -0.366451        -3.474359         0.193218
