19
Iteration:  1958charge 0 multiplicity 1
 C        -3.178071        -1.558921        -0.008915
 C        -2.092459        -0.620194         0.438492
 C        -1.533712         0.350993        -0.549623
 C        -0.854319        -0.805359        -1.352216
 C        -0.511585        -1.209222         0.236881
 C         0.145843        -2.480192         0.529718
 C         0.226909         0.013813         0.764880
 O         1.132055         0.149279         1.570056
 O        -0.456475         1.060942         0.198265
 H        -3.167164        -1.714822        -1.123049
 H        -2.933864        -2.519411         0.423878
 H        -4.178509        -1.263593         0.363902
 H        -2.362165        -0.267097         1.429957
 H        -2.149362         1.006395        -1.165703
 H        -1.622277        -1.485740        -1.828059
 H        -0.023583        -0.586666        -1.944483
 H         0.333556        -2.942431        -0.407136
 H         1.043552        -2.436591         1.168345
 H        -0.493845        -3.101281         1.131669
