19
Iteration:  2485
 C        -3.271331        -1.602290        -0.073142
 C        -2.068739        -0.800962         0.356404
 C        -1.585014         0.352355        -0.647527
 C        -0.567720        -0.654349        -1.249790
 C        -0.527266        -1.218775         0.227166
 C         0.028914        -2.553531         0.765323
 C         0.215442         0.069419         0.746235
 O         1.299738         0.094198         1.271509
 O        -0.641783         1.175819         0.408175
 H        -3.366454        -1.735158        -1.140101
 H        -3.274559        -2.586543         0.406921
 H        -4.153670        -1.123781         0.231486
 H        -2.301035        -0.440481         1.408876
 H        -2.073318         1.185554        -1.123023
 H        -1.113006        -1.326795        -2.002428
 H         0.284123        -0.253940        -1.730495
 H        -0.365271        -3.438007         0.118801
 H         1.130711        -2.520947         0.693087
 H        -0.299776        -2.839986         1.813233
