19
Iteration:   470
 C        -3.000650        -1.451931         1.195145
 C        -1.768567        -0.623507         0.997716
 C        -1.722346         0.465618        -0.130823
 C        -1.405768        -0.760916        -1.066350
 C        -0.540306        -1.229119         0.045335
 C        -0.079735        -2.622022         0.074761
 C         0.368574        -0.039412         0.171434
 O         1.505023         0.019678         0.440881
 O        -0.493591         1.123938         0.132128
 H        -2.695481        -2.364238         1.794558
 H        -3.741356        -0.919154         1.742214
 H        -3.407111        -1.785392         0.228634
 H        -1.330605        -0.213428         1.922714
 H        -2.540902         1.190703        -0.318384
 H        -2.325124        -1.356968        -1.287141
 H        -0.989795        -0.534563        -2.018979
 H         0.777646        -2.581781         0.786643
 H        -0.812192        -3.319789         0.422747
 H         0.367500        -2.938888        -0.883019
