19
Iteration:  3224
 C        -3.158260        -1.666970        -0.204475
 C        -2.034022        -0.836218         0.552142
 C        -1.660837         0.369334        -0.299481
 C        -0.908368        -0.510307        -1.219176
 C        -0.558538        -1.197989         0.201125
 C         0.222133        -2.506318         0.486311
 C         0.217686         0.024610         0.737753
 O         1.329826         0.064834         1.143591
 O        -0.583388         1.099110         0.485557
 H        -3.867670        -1.906334         0.564521
 H        -3.622922        -1.067476        -1.059664
 H        -2.910126        -2.726339        -0.372068
 H        -2.271812        -0.625075         1.625753
 H        -2.317548         1.208530        -0.686010
 H        -1.573414        -1.048771        -1.910636
 H        -0.241261         0.125704        -1.894851
 H         0.072532        -3.206559        -0.281371
 H         1.205666        -2.215919         0.602217
 H        -0.165087        -2.938365         1.347134
