19
Iteration:  2832
 C        -3.057763        -1.703969         0.254321
 C        -1.998315        -0.694797         0.427224
 C        -1.593252         0.420222        -0.620831
 C        -0.702068        -0.658052        -1.388188
 C        -0.555389        -1.203331         0.090138
 C         0.092916        -2.468186         0.509830
 C         0.100508         0.005311         0.720907
 O         0.930657         0.093130         1.624058
 O        -0.401040         1.085008         0.134459
 H        -2.733804        -2.618892         0.756601
 H        -3.984771        -1.364048         0.873279
 H        -3.373136        -1.961094        -0.791187
 H        -2.112442        -0.188716         1.379213
 H        -1.947436         1.366615        -1.163068
 H        -1.164331        -1.417313        -2.078115
 H         0.131125        -0.307455        -1.905016
 H        -0.279373        -3.467027         0.150528
 H         1.148178        -2.341071         0.156868
 H         0.077912        -2.577814         1.610095
