19
Iteration:   512
 C        -2.984063        -1.611343         1.344840
 C        -1.802518        -0.668258         0.881942
 C        -1.703828         0.468145        -0.175973
 C        -1.288154        -0.542521        -1.200252
 C        -0.731581        -1.221697        -0.006649
 C        -0.077504        -2.558699         0.203245
 C         0.325697        -0.053542         0.215595
 O         1.488209         0.012994         0.513669
 O        -0.428194         1.071373         0.029895
 H        -2.629265        -2.675376         1.420158
 H        -3.142702        -1.331480         2.349437
 H        -3.947491        -1.598314         0.813367
 H        -1.364084        -0.236340         1.802816
 H        -2.513230         1.224835        -0.310511
 H        -2.173585        -1.006879        -1.638881
 H        -0.653728        -0.406442        -2.025520
 H         1.010681        -2.643710        -0.163029
 H        -0.118642        -2.821808         1.287507
 H        -0.588215        -3.261843        -0.386400
