19
Iteration:  3710
 C        -3.087489        -1.713710        -0.026748
 C        -1.991163        -0.820247         0.588221
 C        -1.726483         0.336575        -0.148844
 C        -0.935365        -0.484198        -1.209613
 C        -0.523389        -1.217267         0.159118
 C         0.067820        -2.622743         0.126202
 C         0.303770         0.077216         0.744359
 O         1.444087         0.208840         1.101170
 O        -0.675186         1.081706         0.598922
 H        -3.615012        -1.275666        -0.832564
 H        -2.698053        -2.534210        -0.564717
 H        -3.666242        -1.998884         0.842499
 H        -2.230259        -0.624913         1.667318
 H        -2.449810         1.076751        -0.489123
 H        -1.605507        -1.021730        -1.829404
 H        -0.302156         0.084209        -1.919778
 H         0.992826        -2.538384        -0.513814
 H         0.333923        -2.920595         1.124366
 H        -0.663830        -3.220707        -0.419616
