19
Iteration:  4423charge 0 multiplicity 1
 C        -3.018697        -1.848315        -0.053452
 C        -2.008898        -0.828240         0.563693
 C        -1.750448         0.425194        -0.122244
 C        -0.916592        -0.281734        -1.346037
 C        -0.542723        -1.160559         0.004142
 C         0.173451        -2.492195         0.204173
 C         0.203251        -0.008606         0.756794
 O         1.360995        -0.019988         1.069418
 O        -0.688574         1.111251         0.767977
 H        -3.031542        -2.463660         0.816674
 H        -3.999362        -1.451456        -0.276796
 H        -2.689480        -2.512985        -0.856649
 H        -2.048101        -0.643593         1.664416
 H        -2.505511         1.216149        -0.416093
 H        -1.577800        -0.928403        -2.012453
 H        -0.174864         0.393962        -1.894404
 H        -0.444648        -3.446247         0.072501
 H         0.912967        -2.495427        -0.652190
 H         0.808633        -2.457207         1.129278
