19
Iteration:   876charge 0 multiplicity 1
 C        -3.153133        -1.572475         0.868499
 C        -1.930817        -0.719096         0.882660
 C        -1.692933         0.463153        -0.103727
 C        -1.205623        -0.588236        -1.187143
 C        -0.659741        -1.241540         0.142945
 C         0.028061        -2.531033         0.160990
 C         0.338371        -0.070757         0.432017
 O         1.528386         0.084259         0.519790
 O        -0.444413         1.049610         0.198226
 H        -3.132922        -2.179928         1.752633
 H        -4.082187        -0.915419         0.814741
 H        -3.369839        -2.327452         0.096124
 H        -1.760515        -0.338212         1.915488
 H        -2.443853         1.292761        -0.226158
 H        -1.964230        -1.165842        -1.663294
 H        -0.396190        -0.329354        -1.887860
 H        -0.468718        -3.420860         0.571374
 H         0.190297        -2.800838        -0.860045
 H         1.092813        -2.499215         0.659317
