19
Iteration:  2528
 C        -3.069231        -1.743651        -0.108686
 C        -2.047154        -0.707109         0.477246
 C        -1.582380         0.353368        -0.559458
 C        -0.726143        -0.674367        -1.252264
 C        -0.550390        -1.152320         0.313528
 C        -0.208529        -2.601439         0.578995
 C         0.322436         0.065199         0.773963
 O         1.318351         0.300748         1.407748
 O        -0.565165         1.058210         0.259761
 H        -2.813772        -2.038369        -1.099471
 H        -3.321032        -2.621854         0.471722
 H        -3.947452        -1.218585        -0.292890
 H        -2.270031        -0.287726         1.477792
 H        -2.211504         0.974249        -1.220641
 H        -1.105967        -1.507371        -1.969263
 H         0.149173        -0.214745        -1.645951
 H        -1.120449        -3.292730         0.335365
 H         0.661047        -2.866584        -0.050829
 H        -0.042950        -2.796314         1.688166
