19
Iteration:   627charge 0 multiplicity 1
 C        -2.992851        -1.512102         1.048972
 C        -1.814070        -0.575697         0.915205
 C        -1.724627         0.424903        -0.194426
 C        -1.377990        -0.672051        -1.224877
 C        -0.616817        -1.225413         0.037977
 C         0.016922        -2.636471         0.184944
 C         0.306108        -0.001787         0.249229
 O         1.514441        -0.048126         0.421409
 O        -0.498328         1.139185         0.390141
 H        -2.816294        -2.039579         1.966207
 H        -3.976252        -0.929849         1.164807
 H        -3.326366        -2.221396         0.267610
 H        -1.429374        -0.174106         1.912217
 H        -2.345115         1.312732        -0.465324
 H        -2.120044        -1.288855        -1.690079
 H        -0.762182        -0.311592        -2.125450
 H        -0.573574        -3.377379         0.655693
 H         0.323929        -3.092418        -0.751774
 H         0.903289        -2.613607         0.889262
