19
Iteration:  3045charge 0 multiplicity 1
 C        -3.192860        -1.669242         0.193231
 C        -2.019364        -0.775480         0.490613
 C        -1.558945         0.393629        -0.485928
 C        -0.717073        -0.642457        -1.270462
 C        -0.507686        -1.153062         0.166994
 C         0.092288        -2.546137         0.237406
 C         0.207439         0.005266         0.780614
 O         1.154652         0.218462         1.483780
 O        -0.558384         1.060874         0.254163
 H        -2.993212        -2.526201        -0.607641
 H        -3.537292        -2.159787         1.122364
 H        -4.122396        -1.067260        -0.170801
 H        -2.060494        -0.380908         1.497160
 H        -2.378654         0.975828        -0.719543
 H        -1.270859        -1.284641        -2.029934
 H         0.234038        -0.295224        -1.727030
 H        -0.417464        -3.089863        -0.526278
 H         1.147466        -2.477290        -0.064431
 H        -0.101697        -3.168763         1.123108
