19
Iteration:  3084
 C        -3.191429        -1.570681         0.353942
 C        -1.965964        -0.723201         0.379887
 C        -1.613957         0.404815        -0.495591
 C        -0.741949        -0.604301        -1.458522
 C        -0.436638        -1.247608        -0.001158
 C         0.284110        -2.478506         0.287515
 C         0.136264        -0.024168         0.770112
 O         1.015566         0.029807         1.613800
 O        -0.597286         1.072938         0.296087
 H        -2.924877        -2.554478         0.177175
 H        -3.746098        -1.437627         1.294161
 H        -3.804889        -1.331475        -0.474316
 H        -1.939452        -0.362369         1.455279
 H        -2.262358         1.295108        -0.866860
 H        -1.307562        -1.285925        -2.055115
 H         0.012516        -0.060858        -2.075734
 H        -0.434319        -3.401891         0.112433
 H         1.085670        -2.591114        -0.438123
 H         0.660400        -2.654305         1.330939
