19
Iteration:  3404
 C        -3.160274        -1.752741         0.144020
 C        -2.026169        -0.768252         0.568026
 C        -1.619699         0.445307        -0.282799
 C        -0.827815        -0.486481        -1.277868
 C        -0.492410        -1.170527         0.089604
 C         0.126754        -2.563763         0.299335
 C         0.242768         0.031324         0.676512
 O         1.330672         0.080158         1.197503
 O        -0.682270         1.106084         0.471372
 H        -3.556189        -1.482797        -0.883360
 H        -2.881205        -2.782763         0.019257
 H        -4.081091        -1.630005         0.791528
 H        -2.030640        -0.685425         1.677962
 H        -2.338104         1.158192        -0.713048
 H        -1.587971        -0.877097        -2.050926
 H        -0.025402        -0.216665        -1.955313
 H         1.184013        -2.520815         0.526316
 H        -0.347489        -3.245589         0.966691
 H         0.058611        -3.171343        -0.629381
