19
Iteration:   542charge 0 multiplicity 1
 C        -2.948939        -1.518177         1.131882
 C        -1.739738        -0.574382         0.914667
 C        -1.865940         0.402517        -0.174841
 C        -1.503424        -0.673136        -1.150044
 C        -0.607145        -1.161878         0.026654
 C        -0.007230        -2.596714         0.174538
 C         0.402360        -0.009657         0.242998
 O         1.552290        -0.051938         0.603109
 O        -0.450584         1.096122         0.073756
 H        -2.596305        -2.541696         1.073283
 H        -3.346519        -1.354012         2.158898
 H        -3.748025        -1.330960         0.395811
 H        -1.309488        -0.040071         1.752388
 H        -2.635990         1.207207        -0.276312
 H        -2.329879        -1.400744        -1.283564
 H        -1.015134        -0.435953        -2.177785
 H         0.319648        -2.892086        -0.858660
 H         0.802296        -2.733072         0.971408
 H        -0.826068        -3.271256         0.432130
