19
Iteration:  3369charge 0 multiplicity 1
 C        -3.069666        -1.718567         0.167640
 C        -1.931870        -0.826076         0.606406
 C        -1.659367         0.500731        -0.288517
 C        -1.026985        -0.520521        -1.337580
 C        -0.529321        -1.177227        -0.038498
 C         0.208698        -2.401707         0.255853
 C         0.220648         0.008765         0.699741
 O         1.157755        -0.063321         1.487686
 O        -0.500473         1.084508         0.246705
 H        -3.808849        -1.079050        -0.421860
 H        -2.760285        -2.621822        -0.395206
 H        -3.509452        -2.180898         1.074248
 H        -1.942223        -0.534718         1.717673
 H        -2.407066         1.168279        -0.672350
 H        -1.953924        -1.059142        -1.669462
 H        -0.276838        -0.117032        -2.014521
 H         1.257494        -2.166018         0.276580
 H        -0.035490        -2.722954         1.193548
 H         0.059821        -3.076415        -0.570210
