19
Iteration:   543
 C        -2.944644        -1.510505         1.121484
 C        -1.747507        -0.574435         0.910593
 C        -1.864234         0.395389        -0.167840
 C        -1.505113        -0.676717        -1.147089
 C        -0.602294        -1.160171         0.034005
 C        -0.013713        -2.593924         0.170051
 C         0.406110        -0.012099         0.242828
 O         1.551618        -0.049334         0.604187
 O        -0.452109         1.092006         0.070809
 H        -2.591182        -2.550038         1.076191
 H        -3.316971        -1.325166         2.126246
 H        -3.752610        -1.326243         0.395938
 H        -1.306656        -0.057469         1.749157
 H        -2.644074         1.197919        -0.251623
 H        -2.358219        -1.378162        -1.250967
 H        -1.008272        -0.447149        -2.142545
 H         0.319726        -2.889261        -0.887537
 H         0.814685        -2.722508         0.952404
 H        -0.791043        -3.258226         0.471717
