19
Iteration:  1138charge 0 multiplicity 1
 C        -3.017417        -1.718023         0.604325
 C        -1.853705        -0.672357         0.887999
 C        -1.645507         0.532208        -0.170339
 C        -1.280123        -0.619972        -1.238053
 C        -0.602585        -1.175543         0.083825
 C        -0.124835        -2.619635         0.226833
 C         0.316811        -0.002628         0.438705
 O         1.430383         0.095337         0.850508
 O        -0.379128         1.102187         0.219437
 H        -2.687917        -2.647699         0.165238
 H        -3.542127        -1.944955         1.520380
 H        -3.603353        -1.180975        -0.159405
 H        -1.786029        -0.428320         1.978330
 H        -2.381532         1.242094        -0.479190
 H        -2.203787        -1.204488        -1.580141
 H        -0.576313        -0.492894        -2.035324
 H         0.293092        -2.873987         1.237913
 H        -0.819634        -3.288911        -0.125715
 H         0.675906        -2.684381        -0.611166
