19
Iteration:  4544charge 0 multiplicity 1
 C        -3.034377        -1.934373         0.327670
 C        -2.008137        -0.833013         0.630643
 C        -1.743764         0.477350        -0.300297
 C        -0.930361        -0.320584        -1.361988
 C        -0.573053        -1.094850        -0.134476
 C         0.239379        -2.395526        -0.036062
 C         0.252468         0.023631         0.672414
 O         1.137511        -0.142796         1.515996
 O        -0.521366         1.129675         0.421011
 H        -2.621943        -2.876316         0.648754
 H        -3.857025        -1.667895         0.918705
 H        -3.443179        -1.901148        -0.691713
 H        -2.008845        -0.514467         1.662195
 H        -2.441658         1.330353        -0.306479
 H        -1.678238        -0.856263        -2.023720
 H        -0.059687         0.113193        -1.928253
 H        -0.060631        -3.176701        -0.784396
 H         1.382371        -2.238366        -0.051559
 H         0.183970        -2.739598         1.041991
