19
Iteration:   930charge 0 multiplicity 1
 C        -3.097604        -1.536204         0.832872
 C        -1.789047        -0.786283         0.881846
 C        -1.743108         0.423497        -0.182355
 C        -1.388234        -0.595129        -1.195117
 C        -0.573704        -1.189445         0.064179
 C         0.041900        -2.523306         0.117710
 C         0.338608        -0.005551         0.356231
 O         1.480274         0.001614         0.738497
 O        -0.416889         1.092289         0.234746
 H        -3.557038        -1.821541         1.771529
 H        -3.899122        -0.932726         0.270282
 H        -3.107562        -2.482358         0.246720
 H        -1.605799        -0.547013         1.971706
 H        -2.385477         1.348423        -0.334239
 H        -2.205313        -1.271526        -1.311148
 H        -0.914607        -0.344950        -2.170857
 H         0.746911        -2.443202         0.971956
 H        -0.648173        -3.303115         0.248621
 H         0.797540        -2.818692        -0.719989
