19
Iteration:  2131
 C        -3.305016        -1.492725         0.186382
 C        -2.055624        -0.671599         0.356965
 C        -1.440498         0.331452        -0.729803
 C        -0.532913        -0.679891        -1.289969
 C        -0.478421        -1.240569         0.211379
 C         0.140122        -2.660210         0.417292
 C         0.116563         0.039540         0.831578
 O         1.065138         0.223556         1.598010
 O        -0.635615         0.993604         0.212147
 H        -3.477786        -2.096616        -0.758078
 H        -3.422334        -2.242402         0.973833
 H        -4.172722        -0.762470         0.369229
 H        -1.989452        -0.224958         1.350513
 H        -1.825970         1.195104        -1.365249
 H        -0.855956        -1.272765        -2.206551
 H         0.414416        -0.182364        -1.502616
 H        -0.628918        -3.477428         0.401221
 H         0.858217        -2.842985        -0.405743
 H         0.573576        -2.740914         1.427090
