19
Iteration:  2109
 C        -3.249885        -1.553019         0.062368
 C        -2.022990        -0.771405         0.345571
 C        -1.522212         0.293147        -0.621711
 C        -0.608562        -0.669147        -1.346700
 C        -0.366428        -1.228260         0.094155
 C        -0.044102        -2.629685         0.509772
 C         0.218974         0.051596         0.780970
 O         1.055663         0.269425         1.632002
 O        -0.501112         1.105567         0.279526
 H        -3.366276        -2.093904        -0.926080
 H        -3.370519        -2.371187         0.762291
 H        -4.191136        -0.927473         0.234060
 H        -2.023655        -0.378702         1.366703
 H        -2.311104         1.021651        -0.896801
 H        -1.258733        -1.425268        -1.895058
 H         0.261056        -0.505391        -1.948057
 H        -0.879549        -3.321932         0.725394
 H         0.559027        -3.021184        -0.292331
 H         0.539039        -2.547615         1.443823
