19
Iteration:  2731
 C        -3.105584        -1.791116        -0.144014
 C        -2.088173        -0.760439         0.403954
 C        -1.472863         0.418027        -0.486675
 C        -0.653015        -0.671153        -1.266892
 C        -0.561197        -1.173231         0.269859
 C        -0.016418        -2.387186         0.756859
 C         0.120879         0.067661         0.742239
 O         1.237592         0.063441         1.174403
 O        -0.602059         1.151734         0.387915
 H        -2.860190        -2.368457        -1.080841
 H        -3.364378        -2.532150         0.591841
 H        -4.082858        -1.248603        -0.295001
 H        -2.284506        -0.554966         1.471331
 H        -2.051769         1.144303        -0.948758
 H        -1.400236        -1.295553        -1.774485
 H         0.282885        -0.463176        -1.724149
 H        -0.619929        -3.195386         0.406837
 H         1.034978        -2.604773         0.259897
 H         0.177498        -2.409885         1.837363
