19
Iteration:   500
 C        -2.955115        -1.539395         1.360225
 C        -1.834072        -0.651468         0.858418
 C        -1.862383         0.461972        -0.197934
 C        -1.379778        -0.582442        -1.304497
 C        -0.608116        -1.233970         0.057078
 C        -0.105502        -2.609553         0.187884
 C         0.352910        -0.058976         0.266065
 O         1.570531         0.014088         0.487797
 O        -0.409979         1.067495         0.082148
 H        -2.541830        -2.565353         1.416379
 H        -3.305332        -1.235856         2.332892
 H        -3.847378        -1.618224         0.714535
 H        -1.459106        -0.273379         1.827488
 H        -2.576945         1.333887        -0.303638
 H        -2.053313        -1.323041        -1.708382
 H        -0.735868         0.048459        -1.904438
 H         1.020837        -2.305916         0.217513
 H        -0.341604        -3.197277         1.137974
 H        -0.325248        -3.267630        -0.576996
