19
Iteration:  4927
 C        -2.999759        -1.764541        -0.027626
 C        -1.929112        -0.849138         0.586167
 C        -1.798141         0.432858        -0.140202
 C        -0.960691        -0.352778        -1.236741
 C        -0.540805        -1.137605         0.007120
 C         0.164236        -2.492681         0.156980
 C         0.245795        -0.043001         0.689967
 O         1.332025        -0.013798         1.203074
 O        -0.663355         1.147346         0.589375
 H        -3.098741        -2.678772         0.653561
 H        -4.018111        -1.404948         0.292861
 H        -3.120018        -2.060717        -1.107551
 H        -1.989877        -0.779893         1.749142
 H        -2.633715         1.082578        -0.426337
 H        -1.381416        -1.099011        -1.926541
 H        -0.068379         0.061218        -1.759793
 H        -0.408697        -3.292917        -0.287052
 H         1.062305        -2.415813        -0.427729
 H         0.463873        -2.723680         1.186394
