19
Iteration:   216charge 0 multiplicity 1
 C        -2.965686        -1.545697         1.292037
 C        -1.649376        -0.641699         1.155795
 C        -1.748222         0.434416         0.174606
 C        -1.598162        -0.574357        -0.934486
 C        -0.529994        -1.186243         0.068450
 C        -0.124932        -2.628430        -0.080075
 C         0.368700        -0.004760         0.077072
 O         1.568397         0.000680         0.262286
 O        -0.416180         1.048435        -0.096963
 H        -2.856005        -2.594447         1.028078
 H        -3.362226        -1.589888         2.377959
 H        -3.876649        -1.224441         0.759889
 H        -1.300179        -0.265755         2.151264
 H        -2.465983         1.240473         0.220052
 H        -2.424209        -1.235522        -1.167718
 H        -1.310163        -0.041774        -1.891885
 H         0.359923        -3.008266         0.902513
 H        -1.068076        -3.181195        -0.244311
 H         0.549608        -2.787256        -0.829589
