19
Iteration:  4191charge 0 multiplicity 1
 C        -3.073534        -1.843830         0.069765
 C        -1.985957        -0.871105         0.560829
 C        -1.777821         0.502876        -0.061396
 C        -0.934913        -0.300414        -1.283469
 C        -0.578575        -1.170945         0.073868
 C         0.194070        -2.578166         0.111418
 C         0.264576        -0.050698         0.678632
 O         1.422907         0.131398         1.011650
 O        -0.700306         1.092314         0.688782
 H        -3.457221        -2.540656         0.826934
 H        -3.919826        -1.212271        -0.386283
 H        -2.873685        -2.572925        -0.701427
 H        -1.819806        -0.687588         1.650197
 H        -2.569542         1.200605        -0.245798
 H        -1.661301        -1.012826        -1.740212
 H         0.005186         0.167868        -1.849452
 H         1.272745        -2.401980         0.217792
 H        -0.047307        -3.197158         0.909389
 H        -0.100147        -3.230328        -0.631771
