19
Iteration:  4673
 C        -3.112514        -1.783243        -0.060431
 C        -2.046730        -0.920950         0.565785
 C        -1.798633         0.449999        -0.099583
 C        -0.969890        -0.329577        -1.251503
 C        -0.524876        -1.174006         0.017066
 C         0.197192        -2.500919         0.185626
 C         0.286032         0.052575         0.720779
 O         1.417136         0.036222         1.168493
 O        -0.638674         1.071853         0.616021
 H        -3.054015        -2.744402         0.444566
 H        -4.146042        -1.354213         0.012970
 H        -2.809606        -2.042692        -1.112014
 H        -1.952773        -0.990984         1.664416
 H        -2.552360         1.208013        -0.362147
 H        -1.783864        -0.620268        -1.969886
 H        -0.125803         0.055345        -1.856101
 H        -0.303775        -3.465407         0.091876
 H         1.034221        -2.486661        -0.534347
 H         0.557126        -2.475475         1.192239
