19
Iteration:  1406
 C        -3.075906        -1.642904         0.483182
 C        -1.841270        -0.734567         0.656686
 C        -1.651478         0.422531        -0.319096
 C        -1.124402        -0.626480        -1.337635
 C        -0.467126        -1.161234         0.061275
 C        -0.050185        -2.544915         0.333831
 C         0.272074         0.033832         0.523758
 O         1.270590         0.035093         1.176935
 O        -0.438400         1.114646         0.195684
 H        -3.489647        -1.857574         1.449620
 H        -3.974684        -1.124235         0.045947
 H        -2.823019        -2.555717        -0.037432
 H        -1.762445        -0.530923         1.759532
 H        -2.449364         1.097279        -0.494112
 H        -1.793876        -1.235163        -1.986030
 H        -0.401446        -0.208246        -1.965816
 H         0.550481        -2.982923        -0.443408
 H         0.621416        -2.443872         1.205514
 H        -0.838059        -3.169307         0.711990
