19
Iteration:  4558charge 0 multiplicity 1
 C        -3.000265        -1.878303         0.288563
 C        -1.915024        -0.789649         0.576356
 C        -1.671698         0.559352        -0.247242
 C        -1.068293        -0.329894        -1.346838
 C        -0.454407        -1.130831        -0.028590
 C         0.204298        -2.425376         0.019738
 C         0.199448        -0.094540         0.679321
 O         1.175416        -0.105399         1.469870
 O        -0.612377         1.140872         0.408585
 H        -2.555584        -2.911515         0.437481
 H        -4.043602        -1.800652         0.707004
 H        -3.193608        -2.000021        -0.826488
 H        -1.804919        -0.747016         1.754580
 H        -2.399284         1.237440        -0.688347
 H        -1.684096        -0.957091        -1.964684
 H        -0.345009         0.302423        -1.851651
 H         0.012126        -3.080840        -0.798274
 H         1.274302        -2.204718         0.007933
 H        -0.117359        -2.995034         0.928576
