19
Iteration:  3870
 C        -3.086428        -1.804153         0.193753
 C        -1.954819        -0.870172         0.572951
 C        -1.725858         0.454421        -0.184200
 C        -1.004587        -0.329896        -1.222033
 C        -0.436325        -1.116962        -0.016212
 C         0.185058        -2.472824         0.020127
 C         0.241331         0.003979         0.644121
 O         1.289422        -0.017833         1.264562
 O        -0.635291         1.075315         0.572994
 H        -2.623723        -2.713530        -0.285287
 H        -3.798996        -2.201510         0.916334
 H        -3.679651        -1.424843        -0.673808
 H        -2.027056        -0.754586         1.637657
 H        -2.437317         1.239612        -0.407184
 H        -1.599781        -0.908653        -1.974626
 H        -0.347034         0.224538        -1.869801
 H         1.173321        -2.362654        -0.222744
 H         0.154929        -2.817624         1.042029
 H        -0.215760        -3.234659        -0.607977
