19
Iteration:  4226
 C        -3.086937        -1.790143         0.183650
 C        -1.904075        -0.884522         0.642383
 C        -1.780002         0.385475        -0.149862
 C        -0.962196        -0.393028        -1.268850
 C        -0.491801        -1.133567         0.079738
 C         0.116560        -2.537451        -0.112407
 C         0.295828        -0.021671         0.707293
 O         1.354191         0.182480         1.305224
 O        -0.651552         1.082624         0.498277
 H        -3.439541        -2.418342         1.030196
 H        -3.988900        -1.120257        -0.074519
 H        -2.794868        -2.364855        -0.731493
 H        -1.938115        -0.722569         1.762671
 H        -2.601343         1.102472        -0.341173
 H        -1.287084        -1.342621        -1.743150
 H        -0.398176         0.173781        -2.035776
 H         1.127087        -2.629381        -0.455333
 H        -0.032733        -3.158746         0.750571
 H        -0.448048        -2.917513        -0.941934
