19
Iteration:  2041
 C        -3.218255        -1.824783        -0.004133
 C        -2.020124        -0.677916         0.315626
 C        -1.481389         0.475327        -0.574603
 C        -0.601642        -0.658909        -1.275753
 C        -0.559022        -1.126235         0.191330
 C        -0.073537        -2.471870         0.634137
 C         0.184090         0.099045         0.783508
 O         1.199107         0.008513         1.400646
 O        -0.550725         1.133790         0.337963
 H        -2.984734        -2.412801        -0.883766
 H        -3.290537        -2.512384         0.824497
 H        -4.250114        -1.476179        -0.193067
 H        -2.185956        -0.367934         1.365585
 H        -1.931530         1.153998        -1.227359
 H        -1.417656        -1.247130        -1.796901
 H         0.278622        -0.508818        -1.961582
 H        -0.617674        -3.454120         0.367892
 H         0.869015        -2.415189         0.128209
 H         0.080729        -2.467111         1.767603
