19
Iteration:  1288
 C        -3.128273        -1.697087         0.507949
 C        -1.900964        -0.700200         0.716266
 C        -1.787800         0.407822        -0.283104
 C        -1.188334        -0.527795        -1.303053
 C        -0.559291        -1.160339         0.105638
 C        -0.052069        -2.583402         0.335944
 C         0.391173         0.010648         0.448501
 O         1.467140         0.034688         0.982733
 O        -0.408645         1.154736         0.297895
 H        -3.743652        -1.440298        -0.333147
 H        -2.638316        -2.677545         0.165967
 H        -3.625880        -1.869858         1.468276
 H        -1.848109        -0.504826         1.779739
 H        -2.434632         1.250759        -0.428151
 H        -1.901543        -1.345827        -1.688685
 H        -0.535199        -0.260059        -2.117367
 H        -0.868067        -3.156657         0.868340
 H         0.273047        -3.059156        -0.562826
 H         0.792549        -2.617471         1.050755
