19
Iteration:  1621charge 0 multiplicity 1
 C        -3.138826        -1.589223         0.248415
 C        -1.929767        -0.728911         0.628479
 C        -1.668499         0.368665        -0.352264
 C        -0.888078        -0.604366        -1.247143
 C        -0.518106        -1.196901         0.139113
 C        -0.034988        -2.588982         0.339153
 C         0.307297        -0.032488         0.615148
 O         1.257795         0.218316         1.302694
 O        -0.487358         1.026987         0.191324
 H        -3.173728        -1.464007        -0.891746
 H        -3.158108        -2.680501         0.356673
 H        -4.098227        -1.251520         0.697230
 H        -1.951106        -0.441171         1.685515
 H        -2.397349         1.052097        -0.693632
 H        -1.630646        -1.221430        -1.791728
 H        -0.028952        -0.398378        -1.880644
 H         0.467181        -2.934495        -0.521825
 H         0.706385        -2.645914         1.140861
 H        -0.918135        -3.130616         0.588665
