19
Iteration:  3838
 C        -3.087943        -1.736086         0.349101
 C        -1.877481        -0.879668         0.596917
 C        -1.698580         0.459774        -0.270207
 C        -0.983944        -0.439864        -1.295524
 C        -0.398016        -1.178457        -0.011249
 C         0.138145        -2.583467        -0.270485
 C         0.317184         0.025666         0.700834
 O         1.160859         0.155315         1.529256
 O        -0.637481         1.053839         0.492769
 H        -2.870811        -2.639299        -0.311081
 H        -3.686885        -2.044970         1.212545
 H        -3.758196        -1.112250        -0.324836
 H        -1.823288        -0.647159         1.663766
 H        -2.452240         1.214849        -0.490356
 H        -1.726301        -1.166156        -1.707305
 H        -0.245733         0.042627        -1.909734
 H         1.128533        -2.355697        -0.627960
 H         0.291845        -3.180751         0.638088
 H        -0.458408        -3.131183        -1.024783
