19
Iteration:  2885
 C        -3.093631        -1.620239         0.146115
 C        -1.895320        -0.723521         0.467322
 C        -1.561305         0.342868        -0.562124
 C        -0.736471        -0.731346        -1.409503
 C        -0.473374        -1.219025         0.101959
 C         0.011483        -2.565078         0.461865
 C         0.166746         0.043075         0.749249
 O         1.000499         0.242872         1.645405
 O        -0.507952         1.080221         0.212906
 H        -3.608464        -1.708768         1.065902
 H        -3.791983        -1.288100        -0.574525
 H        -2.719497        -2.633422        -0.040238
 H        -1.966970        -0.208839         1.479630
 H        -2.216101         1.104847        -1.016672
 H        -1.634085        -1.061755        -2.086869
 H        -0.048958        -0.448838        -2.166910
 H        -0.569890        -3.419823        -0.018244
 H         0.977630        -2.624136        -0.271086
 H         0.361806        -2.857628         1.493129
