19
Iteration:  3679
 C        -3.185731        -1.739287         0.010390
 C        -2.001049        -0.880615         0.605756
 C        -1.607815         0.390998        -0.181352
 C        -0.841195        -0.438874        -1.126137
 C        -0.535513        -1.247385         0.163547
 C         0.105456        -2.545070         0.137752
 C         0.230710         0.025890         0.711687
 O         1.397097         0.217143         0.999889
 O        -0.693214         1.059628         0.623062
 H        -3.952944        -1.002351        -0.300510
 H        -2.784883        -2.460022        -0.797421
 H        -3.639607        -2.397577         0.769215
 H        -2.141367        -0.630570         1.688402
 H        -2.189645         1.121796        -0.774257
 H        -1.542754        -0.864919        -1.822057
 H        -0.071272         0.094179        -1.862660
 H         1.158803        -2.454209        -0.052068
 H        -0.068537        -3.120035         0.996047
 H        -0.320985        -3.161276        -0.614981
