19
Iteration:  4569charge 0 multiplicity 1
 C        -2.935422        -1.807082         0.192390
 C        -1.875914        -0.826879         0.544447
 C        -1.750849         0.476902        -0.258829
 C        -1.049981        -0.328381        -1.299391
 C        -0.491320        -1.134939        -0.024646
 C         0.200297        -2.535014         0.045098
 C         0.175852         0.003689         0.736480
 O         1.157721        -0.045009         1.376133
 O        -0.566309         1.117499         0.483837
 H        -2.547934        -2.768669         0.650426
 H        -3.914026        -1.613516         0.724907
 H        -3.082192        -1.860636        -0.914268
 H        -1.915230        -0.518019         1.667021
 H        -2.478511         1.289244        -0.343118
 H        -1.763828        -0.984102        -1.759822
 H        -0.448564         0.119345        -2.096205
 H        -0.085619        -2.953722        -0.890588
 H         1.286273        -2.514634         0.134632
 H        -0.102830        -3.195606         0.895203
