19
Iteration:  1167
 C        -3.135662        -1.569638         0.656835
 C        -1.988839        -0.677745         0.863584
 C        -1.788908         0.445166        -0.209756
 C        -1.247696        -0.566888        -1.208975
 C        -0.507012        -1.138927         0.097824
 C         0.105867        -2.573954         0.132538
 C         0.337891         0.006382         0.494683
 O         1.466105        -0.048001         0.963268
 O        -0.412604         1.084311         0.122503
 H        -2.808749        -2.516634         0.250601
 H        -3.503064        -1.917132         1.662006
 H        -3.861221        -1.068086         0.040157
 H        -1.895245        -0.423912         1.912208
 H        -2.528141         1.164142        -0.673999
 H        -1.931428        -1.351069        -1.555524
 H        -0.671003        -0.346207        -2.137607
 H         1.172722        -2.534326         0.434312
 H        -0.430617        -3.421483         0.719632
 H        -0.008064        -2.918133        -0.913887
