19
Iteration:  1087
 C        -3.259669        -1.554836         0.827173
 C        -1.898942        -0.718713         0.705499
 C        -1.649650         0.440131        -0.237693
 C        -1.087571        -0.554925        -1.237652
 C        -0.638475        -1.248472         0.055531
 C         0.101724        -2.565726         0.195441
 C         0.298797        -0.036318         0.449974
 O         1.473256         0.067321         0.668304
 O        -0.499071         1.048159         0.401068
 H        -2.885983        -2.626655         0.625798
 H        -3.758624        -1.291116         1.765740
 H        -4.019940        -1.320882        -0.004118
 H        -1.652844        -0.509944         1.783052
 H        -2.387952         1.149002        -0.576215
 H        -1.833907        -1.173720        -1.769820
 H        -0.314227        -0.088133        -1.853124
 H        -0.706675        -3.208195         0.588778
 H         0.508159        -3.066877        -0.775202
 H         0.766951        -2.507672         1.029081
