19
Iteration:  2040charge 0 multiplicity 1
 C        -3.228047        -1.816341        -0.008090
 C        -2.012749        -0.678475         0.309404
 C        -1.479122         0.468818        -0.574123
 C        -0.600328        -0.664249        -1.272742
 C        -0.555244        -1.132472         0.186296
 C        -0.071945        -2.478488         0.637213
 C         0.182409         0.112372         0.780136
 O         1.205170         0.011974         1.401017
 O        -0.558628         1.132300         0.346319
 H        -3.003804        -2.423890        -0.850224
 H        -3.312848        -2.500876         0.827709
 H        -4.237132        -1.488240        -0.160620
 H        -2.191019        -0.355220         1.360455
 H        -1.940819         1.166662        -1.235297
 H        -1.394300        -1.246400        -1.786853
 H         0.277764        -0.485419        -1.992124
 H        -0.621796        -3.455408         0.337658
 H         0.897741        -2.428321         0.117333
 H         0.047783        -2.480212         1.777756
