19
Iteration:  4980
 C        -3.077611        -1.805817         0.401847
 C        -1.971141        -0.894575         0.461138
 C        -1.656507         0.388432        -0.268191
 C        -0.962108        -0.361040        -1.391145
 C        -0.507440        -1.147301        -0.037838
 C         0.251149        -2.472013        -0.189822
 C         0.269560         0.076659         0.700354
 O         1.096503         0.002953         1.605962
 O        -0.549772         1.113328         0.469313
 H        -3.100524        -2.675294         1.081175
 H        -4.026213        -1.239055         0.620160
 H        -3.219871        -2.301172        -0.629119
 H        -1.988260        -0.485377         1.518882
 H        -2.335268         1.250651        -0.280009
 H        -1.529550        -1.049886        -1.961628
 H        -0.109394         0.093958        -1.827471
 H        -0.283254        -3.085038        -0.897035
 H         1.246019        -2.335112        -0.583036
 H         0.130382        -3.107057         0.697349
