19
Iteration:  4769
 C        -3.126414        -1.805501         0.424156
 C        -1.912634        -0.934463         0.687432
 C        -1.763785         0.497297        -0.373271
 C        -0.895456        -0.359611        -1.402145
 C        -0.425953        -1.151353        -0.106472
 C         0.212158        -2.504784        -0.176799
 C         0.265587         0.028100         0.723410
 O         1.089222        -0.003638         1.592775
 O        -0.576324         1.110803         0.449966
 H        -2.964962        -2.746185         0.989359
 H        -4.142486        -1.295420         0.691761
 H        -2.974806        -2.164579        -0.642180
 H        -1.833421        -0.449294         1.753359
 H        -2.497980         1.288320        -0.596316
 H        -1.408133        -0.924941        -2.194765
 H        -0.076637         0.196472        -1.824724
 H        -0.359908        -3.087877        -0.953142
 H         1.096959        -2.271183        -0.800566
 H         0.391900        -3.159291         0.641692
