19
Iteration:  4880
 C        -3.012390        -1.756559        -0.013154
 C        -2.018889        -0.883310         0.473676
 C        -1.778050         0.502392        -0.139798
 C        -0.792897        -0.456754        -1.125646
 C        -0.513470        -1.187846         0.102226
 C         0.037528        -2.625748         0.069998
 C         0.292592         0.015218         0.739363
 O         1.428524         0.249813         1.030880
 O        -0.738394         1.007291         0.715940
 H        -3.222164        -2.796433         0.312981
 H        -4.082172        -1.426761         0.325637
 H        -3.157655        -1.738975        -1.181422
 H        -2.221060        -0.748072         1.631970
 H        -2.547996         1.272777        -0.318280
 H        -1.232388        -0.942012        -1.981941
 H        -0.076442         0.205134        -1.594336
 H        -0.706087        -3.409670        -0.098934
 H         1.018204        -2.871287        -0.415271
 H         0.302295        -2.604848         1.144814
