19
Iteration:  4110charge 0 multiplicity 1
 C        -3.133567        -1.815143         0.177705
 C        -1.968720        -0.945081         0.595129
 C        -1.756877         0.483275        -0.178809
 C        -0.948099        -0.409270        -1.278694
 C        -0.515175        -1.149889         0.041831
 C         0.107181        -2.561968        -0.036761
 C         0.293564         0.045021         0.698147
 O         1.371492         0.206185         1.264621
 O        -0.635017         1.029454         0.565285
 H        -2.944045        -2.861926         0.343734
 H        -3.993849        -1.679107         0.714307
 H        -3.338570        -1.664542        -0.878502
 H        -1.907696        -0.737630         1.652663
 H        -2.423343         1.400601        -0.291222
 H        -1.195476        -1.100384        -2.124753
 H        -0.075028         0.190476        -1.568532
 H         0.887591        -2.647631        -0.790782
 H         0.586202        -2.781483         0.956771
 H        -0.634922        -3.309098        -0.457336
