19
Iteration:   201
 C        -2.858119        -1.541022         1.250401
 C        -1.611124        -0.739915         1.170988
 C        -1.838799         0.537234         0.153057
 C        -1.663094        -0.521512        -0.991391
 C        -0.662252        -1.198740         0.076419
 C        -0.175594        -2.633119         0.022803
 C         0.407793        -0.075798         0.075301
 O         1.623884         0.006088         0.225431
 O        -0.439444         1.083612        -0.064515
 H        -2.498345        -2.569277         1.092197
 H        -3.179149        -1.384735         2.264813
 H        -3.566649        -1.221035         0.489685
 H        -1.159319        -0.670725         2.152241
 H        -2.532604         1.342523         0.382980
 H        -2.478152        -1.272775        -1.173779
 H        -1.062592        -0.233978        -1.883471
 H        -0.107207        -3.011015         1.014907
 H        -0.753088        -3.315586        -0.616696
 H         0.900966        -2.684661        -0.396445
