19
Iteration:  3722charge 0 multiplicity 1
 C        -3.111622        -1.781283         0.004653
 C        -1.992119        -0.936686         0.666925
 C        -1.680465         0.473168        -0.227052
 C        -0.980871        -0.390213        -1.195639
 C        -0.470727        -1.160295         0.098757
 C         0.073692        -2.562923         0.157062
 C         0.285123         0.018076         0.693682
 O         1.390371         0.161354         1.149552
 O        -0.644311         1.083017         0.530331
 H        -3.618700        -1.160906        -0.691608
 H        -2.729492        -2.751474        -0.319585
 H        -3.953614        -2.108144         0.599481
 H        -2.004707        -0.884618         1.781657
 H        -2.482446         1.180743        -0.499116
 H        -1.603871        -0.948378        -1.834709
 H        -0.078562         0.122346        -1.699762
 H         0.938239        -2.672604        -0.514712
 H         0.407138        -2.916883         1.094099
 H        -0.597958        -3.343119        -0.121007
