19
Iteration:   249charge 0 multiplicity 1
 C        -2.934593        -1.398965         1.434057
 C        -1.702121        -0.591838         0.978859
 C        -1.758178         0.460474        -0.043373
 C        -1.561365        -0.715777        -1.076009
 C        -0.671406        -1.285501        -0.002846
 C        -0.024726        -2.612020        -0.122574
 C         0.352939        -0.023668         0.158564
 O         1.554543        -0.007648         0.256041
 O        -0.443327         1.029238         0.246355
 H        -2.939659        -2.412314         1.047858
 H        -2.705516        -1.407881         2.528162
 H        -3.856629        -0.846249         1.241126
 H        -1.281331        -0.062183         1.858649
 H        -2.465609         1.293232        -0.028036
 H        -2.475870        -1.311467        -1.079870
 H        -1.206193        -0.425086        -2.100220
 H         1.063972        -2.540215         0.230023
 H        -0.537811        -3.406475         0.433475
 H        -0.081507        -2.887938        -1.090533
