19
Iteration:   360charge 0 multiplicity 1
 C        -3.010421        -1.612748         1.283825
 C        -1.750495        -0.747313         1.107065
 C        -1.744955         0.496636        -0.032278
 C        -1.451016        -0.564125        -1.174845
 C        -0.641188        -1.189730         0.098838
 C        -0.135902        -2.604965         0.166877
 C         0.426913        -0.090881         0.232040
 O         1.607369         0.034259         0.233228
 O        -0.436823         1.144185         0.004910
 H        -3.924611        -0.946871         1.427423
 H        -3.189436        -2.298076         0.469790
 H        -2.975852        -2.246671         2.205872
 H        -1.428595        -0.494567         2.141085
 H        -2.530218         1.318169        -0.203669
 H        -2.432731        -1.004889        -1.403148
 H        -0.859917        -0.167228        -1.996005
 H        -0.811290        -3.235605        -0.480269
 H         0.886148        -2.617777        -0.258355
 H        -0.070687        -3.065125         1.104211
