19
Iteration:   767
 C        -3.067186        -1.427727         1.055442
 C        -1.805071        -0.615278         0.942282
 C        -1.724377         0.437169        -0.273834
 C        -1.359296        -0.679850        -1.126191
 C        -0.663605        -1.270188         0.078647
 C         0.110564        -2.541810         0.031661
 C         0.327957        -0.063026         0.283711
 O         1.456404         0.000331         0.698231
 O        -0.480357         1.027834         0.185169
 H        -2.717143        -2.388156         1.395969
 H        -3.778310        -0.994252         1.821974
 H        -3.566719        -1.459108         0.080002
 H        -1.361647        -0.160032         1.843880
 H        -2.436739         1.256616        -0.592330
 H        -2.093105        -1.280490        -1.563587
 H        -0.643449        -0.540391        -1.954329
 H         1.080310        -2.398638        -0.401880
 H         0.154092        -2.850805         1.062156
 H        -0.389144        -3.374161        -0.707640
