19
Iteration:  2429
 C        -3.098899        -1.585965        -0.024033
 C        -1.999691        -0.687728         0.522247
 C        -1.565396         0.346864        -0.522922
 C        -0.768744        -0.726033        -1.284736
 C        -0.408268        -1.215761         0.159522
 C         0.032739        -2.558501         0.550775
 C         0.194554         0.005019         0.739503
 O         1.043598         0.146944         1.582327
 O        -0.497333         1.142483         0.103340
 H        -3.025330        -2.069965        -0.983349
 H        -3.212879        -2.405074         0.658700
 H        -4.004378        -1.033058         0.006332
 H        -2.137927        -0.241742         1.522971
 H        -2.225610         1.078391        -0.998201
 H        -1.453653        -1.503624        -1.664659
 H        -0.031122        -0.288666        -1.957473
 H        -0.159628        -3.179567        -0.353286
 H         1.148650        -2.669687         0.764695
 H        -0.587988        -2.908726         1.398716
