19
Iteration:  3253charge 0 multiplicity 1
 C        -3.078559        -1.694935        -0.089291
 C        -1.991250        -0.781338         0.583182
 C        -1.697120         0.473143        -0.275195
 C        -0.903681        -0.587844        -1.265723
 C        -0.556418        -1.163964         0.066234
 C         0.152650        -2.485237         0.384747
 C         0.266221        -0.032763         0.695353
 O         1.307393         0.028303         1.329349
 O        -0.637343         1.135020         0.399160
 H        -3.835789        -1.753613         0.738993
 H        -3.528005        -1.333800        -0.981159
 H        -2.678571        -2.721506        -0.347538
 H        -2.124249        -0.660046         1.652774
 H        -2.371352         1.252111        -0.714641
 H        -1.698019        -1.208656        -1.774041
 H        -0.208432        -0.001511        -1.803185
 H         0.381485        -3.176605        -0.486965
 H         1.203914        -2.211183         0.877860
 H        -0.478621        -3.182723         1.041445
