19
Iteration:  3876charge 0 multiplicity 1
 C        -3.113917        -1.873014         0.100551
 C        -1.974244        -0.866889         0.635105
 C        -1.798588         0.491886        -0.184329
 C        -0.985577        -0.262423        -1.234717
 C        -0.477470        -1.091995         0.006957
 C         0.186026        -2.456443         0.089152
 C         0.315769        -0.019807         0.600162
 O         1.309306        -0.035633         1.234458
 O        -0.632943         1.038054         0.570175
 H        -2.716785        -2.826271        -0.208541
 H        -3.727145        -2.095707         1.006569
 H        -3.667567        -1.359967        -0.670674
 H        -1.993548        -0.648041         1.743842
 H        -2.518602         1.299271        -0.411682
 H        -1.569440        -0.939704        -1.865932
 H        -0.186556         0.253322        -1.859665
 H         1.342555        -2.389882        -0.241089
 H         0.241842        -2.795788         1.158492
 H        -0.167844        -3.255435        -0.626242
