19
Iteration:  2529
 C        -3.067156        -1.752899        -0.109967
 C        -2.051640        -0.700620         0.474351
 C        -1.583394         0.356212        -0.553360
 C        -0.727102        -0.682432        -1.254697
 C        -0.544661        -1.150106         0.317676
 C        -0.205495        -2.598193         0.571611
 C         0.324791         0.057859         0.773583
 O         1.325866         0.297515         1.420356
 O        -0.568515         1.068246         0.246618
 H        -2.826975        -2.052607        -1.101733
 H        -3.350820        -2.623341         0.502099
 H        -3.966486        -1.238988        -0.313210
 H        -2.299361        -0.274822         1.496163
 H        -2.257878         1.039802        -1.174373
 H        -1.098470        -1.501042        -1.975619
 H         0.151195        -0.238145        -1.680945
 H        -1.142438        -3.301971         0.353090
 H         0.655260        -2.852826        -0.046324
 H        -0.033347        -2.816601         1.692567
