19
Iteration:  4708
 C        -2.994156        -1.760820         0.119737
 C        -1.892829        -0.897652         0.569560
 C        -1.791001         0.447672        -0.175440
 C        -0.961307        -0.339099        -1.312753
 C        -0.499586        -1.147802        -0.044521
 C         0.128023        -2.515347         0.016689
 C         0.213290         0.028600         0.766781
 O         1.264834        -0.010644         1.396733
 O        -0.624359         1.090603         0.480267
 H        -2.773886        -2.738889         0.526814
 H        -3.947353        -1.545641         0.471069
 H        -3.094200        -1.897375        -0.946758
 H        -2.037520        -0.750205         1.610484
 H        -2.485850         1.294960        -0.231123
 H        -1.748063        -0.834841        -1.922277
 H        -0.126306         0.148026        -1.905646
 H        -0.520886        -3.373028        -0.026753
 H         0.944392        -2.549873        -0.745037
 H         0.795277        -2.481826         0.913403
