19
Iteration:   520charge 0 multiplicity 1
 C        -2.981914        -1.630095         1.320041
 C        -1.846559        -0.659131         1.026317
 C        -1.659433         0.497344        -0.219662
 C        -1.351619        -0.607061        -1.259916
 C        -0.609181        -1.192281        -0.020662
 C        -0.061261        -2.588229         0.167090
 C         0.303566        -0.046075         0.215178
 O         1.462909        -0.014495         0.529570
 O        -0.441998         1.119048         0.044080
 H        -2.649385        -2.655950         1.273629
 H        -3.261376        -1.372631         2.385777
 H        -3.850046        -1.437766         0.671495
 H        -1.285322        -0.289354         1.878002
 H        -2.424867         1.292555        -0.394523
 H        -2.313439        -1.041468        -1.558745
 H        -0.602647        -0.357623        -2.136215
 H         0.952586        -2.736067        -0.313671
 H         0.044093        -2.630070         1.320542
 H        -0.771088        -3.401207        -0.045445
