19
Iteration:  3550
 C        -3.172154        -1.660229         0.344851
 C        -1.985392        -0.756481         0.531678
 C        -1.654404         0.349016        -0.347868
 C        -0.882035        -0.524775        -1.423263
 C        -0.368349        -1.210213        -0.018164
 C         0.214455        -2.566301        -0.104200
 C         0.236288         0.041747         0.732471
 O         1.126789         0.111087         1.561138
 O        -0.611402         1.106153         0.499098
 H        -3.392514        -2.131114         1.267127
 H        -4.140367        -1.179443         0.091797
 H        -2.926183        -2.469640        -0.291476
 H        -1.912121        -0.451683         1.535021
 H        -2.477276         1.076667        -0.421166
 H        -1.361462        -1.246998        -1.973317
 H        -0.189880         0.126383        -1.976721
 H         0.702306        -2.752145        -1.047511
 H         1.023299        -2.861209         0.567612
 H        -0.550735        -3.317179        -0.240021
