19
Iteration:   184
 C        -2.853160        -1.604380         1.324493
 C        -1.594004        -0.628706         1.119700
 C        -1.674456         0.453862         0.064918
 C        -1.715428        -0.577103        -1.063005
 C        -0.655291        -1.212680        -0.037457
 C        -0.142254        -2.624197         0.075345
 C         0.350336        -0.008268         0.094474
 O         1.542379        -0.031196         0.143035
 O        -0.394811         1.124244         0.159022
 H        -2.630365        -2.684965         1.360110
 H        -3.524314        -1.337205         2.227229
 H        -3.446298        -1.477058         0.402261
 H        -1.050072        -0.267482         2.039462
 H        -2.444417         1.223767        -0.017092
 H        -2.707910        -0.984339        -1.112996
 H        -1.348867        -0.155128        -2.029175
 H        -0.519107        -3.141435         1.057965
 H        -0.467485        -3.275121        -0.770118
 H         0.894623        -2.634653         0.062687
