19
Iteration:   862charge 0 multiplicity 1
 C        -3.193485        -1.643774         0.919770
 C        -1.956552        -0.625065         0.877815
 C        -1.758712         0.448100        -0.223567
 C        -1.199015        -0.643504        -1.194248
 C        -0.549785        -1.151359         0.171593
 C         0.031183        -2.633634         0.125405
 C         0.368308         0.039226         0.361178
 O         1.567318        -0.019983         0.522958
 O        -0.467664         1.146137         0.312306
 H        -2.967639        -2.395494         1.713132
 H        -4.177176        -1.190338         1.213537
 H        -3.192171        -2.132636        -0.051572
 H        -1.830590        -0.309324         1.932293
 H        -2.477471         1.265585        -0.494689
 H        -1.979493        -1.321257        -1.597842
 H        -0.559624        -0.242707        -2.010418
 H        -0.880207        -3.228511         0.308163
 H         0.599631        -2.808526        -0.828438
 H         0.668881        -2.794165         1.013288
