19
Iteration:   905charge 0 multiplicity 1
 C        -3.132161        -1.413284         0.766409
 C        -1.858569        -0.737233         0.944666
 C        -1.738102         0.382781        -0.011936
 C        -1.401774        -0.624391        -1.223502
 C        -0.528819        -1.224933        -0.001675
 C         0.163598        -2.636087         0.168109
 C         0.388800         0.008532         0.294402
 O         1.539580         0.004138         0.680487
 O        -0.535786         1.131929         0.218859
 H        -3.461150        -1.905521         1.698777
 H        -3.936430        -0.774653         0.354487
 H        -3.159015        -2.277725         0.118155
 H        -1.809450        -0.401874         1.998468
 H        -2.523524         1.183561         0.063291
 H        -2.224739        -1.303776        -1.512845
 H        -0.769362        -0.359924        -2.107765
 H        -0.058473        -2.895950         1.214778
 H        -0.344953        -3.382992        -0.510877
 H         1.213157        -2.783517         0.072947
