19
Iteration:  1869charge 0 multiplicity 1
 C        -3.089502        -1.602718         0.103073
 C        -2.006156        -0.667468         0.513485
 C        -1.584229         0.438992        -0.569601
 C        -0.808345        -0.781212        -1.251804
 C        -0.557869        -1.243425         0.274889
 C        -0.035531        -2.756466         0.388022
 C         0.219689         0.064600         0.752132
 O         1.139857         0.258967         1.524416
 O        -0.409282         1.176835         0.137226
 H        -2.718481        -2.186255        -0.730216
 H        -3.225395        -2.353225         0.871356
 H        -4.146132        -1.266594        -0.128776
 H        -2.124857        -0.181160         1.479153
 H        -2.180179         1.108470        -1.136797
 H        -1.477112        -1.441468        -1.854309
 H         0.017905        -0.485944        -1.857305
 H         1.035492        -2.686188         0.591619
 H        -0.530472        -3.222794         1.218247
 H        -0.308228        -3.333468        -0.509385
