19
Iteration:  4654
 C        -3.084216        -1.761957        -0.045482
 C        -1.988396        -0.887970         0.565400
 C        -1.717739         0.435203        -0.193591
 C        -0.929985        -0.373844        -1.253177
 C        -0.493004        -1.163384         0.121913
 C         0.184211        -2.460988         0.136933
 C         0.219465        -0.059353         0.760458
 O         1.361950         0.098050         1.029646
 O        -0.689618         1.037343         0.743426
 H        -3.270890        -2.627196         0.550637
 H        -3.922616        -1.167410        -0.004560
 H        -3.025143        -2.175098        -1.036033
 H        -2.258625        -0.565813         1.505322
 H        -2.437373         1.253377        -0.316196
 H        -1.396928        -1.161713        -1.870888
 H        -0.144408         0.284672        -1.709537
 H        -0.427217        -3.258293        -0.303911
 H         1.140534        -2.404853        -0.455871
 H         0.386766        -2.739532         1.218875
