19
Iteration:  4067
 C        -2.977155        -1.775103         0.403626
 C        -1.890299        -0.761045         0.650191
 C        -1.765560         0.477340        -0.321080
 C        -0.982110        -0.459150        -1.359723
 C        -0.497191        -1.169145        -0.103821
 C         0.241540        -2.502907        -0.188366
 C         0.225685        -0.020007         0.681600
 O         1.095709        -0.008132         1.524096
 O        -0.568027         1.124134         0.480024
 H        -2.688770        -2.758476         0.829317
 H        -3.771597        -1.443142         1.018277
 H        -3.418348        -1.965781        -0.588461
 H        -1.862042        -0.729808         1.720264
 H        -2.557448         1.242709        -0.585733
 H        -1.713136        -1.018701        -1.992380
 H        -0.220308         0.214711        -1.846082
 H         0.903342        -2.539217        -1.020596
 H         0.816192        -2.692089         0.733670
 H        -0.508784        -3.306348        -0.425312
