19
Iteration:  1721
 C        -3.146957        -1.661365         0.288720
 C        -1.946602        -0.701090         0.548372
 C        -1.597120         0.370644        -0.494411
 C        -0.851276        -0.690303        -1.372333
 C        -0.480147        -1.173241         0.118910
 C        -0.051574        -2.537382         0.439924
 C         0.300190         0.040816         0.605864
 O         1.195254         0.123091         1.424671
 O        -0.472082         1.098336         0.215605
 H        -4.094891        -1.521176         1.010693
 H        -3.572559        -1.335685        -0.732615
 H        -2.970120        -2.749788         0.196886
 H        -2.028110        -0.288308         1.566972
 H        -2.341447         1.156161        -0.583008
 H        -1.548480        -1.451121        -1.894754
 H        -0.136938        -0.165958        -1.990724
 H        -0.949382        -3.077784         0.636911
 H         0.548725        -3.030050        -0.393623
 H         0.499209        -2.514932         1.361506
