19
Iteration:  1479charge 0 multiplicity 1
 C        -3.241861        -1.576306         0.391421
 C        -1.934747        -0.793232         0.654224
 C        -1.629992         0.371067        -0.348707
 C        -0.957227        -0.673926        -1.245516
 C        -0.485697        -1.223533         0.079701
 C         0.037658        -2.670794         0.279057
 C         0.287493         0.063929         0.613967
 O         1.311039         0.175214         1.214178
 O        -0.489378         1.185134         0.201648
 H        -3.199270        -2.728201         0.378460
 H        -3.887993        -1.380993         1.216016
 H        -3.729212        -1.199816        -0.544338
 H        -1.815372        -0.388270         1.671641
 H        -2.308345         1.146956        -0.671788
 H        -1.613150        -1.429051        -1.718193
 H        -0.265381        -0.210506        -2.061773
 H        -0.790577        -3.216797         0.731249
 H         0.324542        -3.315197        -0.664236
 H         0.925376        -2.664079         0.959002
