19
Iteration:  2062charge 0 multiplicity 1
 C        -2.954529        -1.736567        -0.067832
 C        -2.119241        -0.633787         0.447614
 C        -1.572712         0.480962        -0.574434
 C        -0.757851        -0.612873        -1.257986
 C        -0.663850        -1.192341         0.202062
 C         0.027366        -2.491539         0.650857
 C         0.172465         0.030732         0.762533
 O         1.127971        -0.007763         1.473236
 O        -0.421872         1.088822         0.184873
 H        -2.613341        -2.241844        -0.921325
 H        -3.016747        -2.514544         0.673897
 H        -4.013723        -1.620220        -0.162448
 H        -2.560334        -0.199695         1.376016
 H        -2.155530         1.251142        -1.008756
 H        -1.120656        -1.285331        -2.089462
 H         0.134633        -0.007450        -1.646989
 H        -0.853482        -3.278693         0.666962
 H         0.766270        -2.820325        -0.095740
 H         0.240355        -2.375204         1.772127
