19
Iteration:  2853
 C        -3.077523        -1.745566         0.302020
 C        -2.033090        -0.609521         0.443702
 C        -1.528530         0.449668        -0.672990
 C        -0.706951        -0.670628        -1.350097
 C        -0.430752        -1.177107         0.109844
 C         0.113779        -2.478854         0.488833
 C         0.166889         0.057916         0.725027
 O         0.909396        -0.063863         1.679403
 O        -0.489716         1.174694         0.059149
 H        -3.031554        -2.335550         1.203379
 H        -4.152687        -1.462199         0.214281
 H        -2.884896        -2.408761        -0.568282
 H        -2.170115        -0.175300         1.465543
 H        -2.263528         1.076198        -1.289854
 H        -1.482784        -1.218185        -1.968468
 H         0.066625        -0.383827        -2.006944
 H        -0.511477        -3.323015         0.051460
 H         1.168749        -2.462392        -0.016311
 H         0.180657        -2.649118         1.590509
