19
Iteration:  1794
 C        -3.248918        -1.584990         0.078652
 C        -2.021495        -0.754881         0.437550
 C        -1.594322         0.396297        -0.497576
 C        -0.725129        -0.616147        -1.343933
 C        -0.480128        -1.181461         0.170632
 C         0.015267        -2.484177         0.710872
 C         0.189478         0.013847         0.710775
 O         1.309042         0.071899         1.168365
 O        -0.567795         1.035001         0.376100
 H        -3.195178        -2.619334         0.339735
 H        -4.048505        -1.167956         0.613283
 H        -3.536420        -1.549611        -0.958961
 H        -2.098402        -0.457030         1.502708
 H        -2.281414         1.026266        -0.976122
 H        -1.271488        -1.441112        -1.847975
 H         0.130640        -0.259778        -1.856059
 H        -0.227448        -2.599721         1.785315
 H        -0.390494        -3.288185         0.019554
 H         1.131221        -2.477387         0.505543
