19
Iteration:   128charge 0 multiplicity 1
 C        -2.985646        -1.520917         1.569956
 C        -1.685061        -0.658464         1.143194
 C        -1.778626         0.520287         0.135343
 C        -1.447083        -0.559350        -1.060031
 C        -0.641844        -1.223293         0.059696
 C        -0.007054        -2.638123        -0.124096
 C         0.294816        -0.098283         0.077363
 O         1.489083        -0.071032         0.036758
 O        -0.429939         1.119590         0.126324
 H        -2.821798        -1.915580         2.568938
 H        -3.822533        -0.732033         1.470895
 H        -3.194058        -2.252042         0.775463
 H        -1.099363        -0.417063         2.076624
 H        -2.504435         1.294666         0.021727
 H        -2.245940        -1.222840        -1.473109
 H        -0.916963        -0.056744        -1.941796
 H        -0.778482        -3.349821        -0.671683
 H         0.880687        -2.490031        -0.788112
 H         0.259998        -3.163902         0.730597
