19
Iteration:  3155
 C        -3.054620        -1.757206         0.052023
 C        -2.029274        -0.714979         0.557336
 C        -1.596857         0.396538        -0.395921
 C        -0.795250        -0.573837        -1.317967
 C        -0.514338        -1.152325         0.078861
 C        -0.035996        -2.576103         0.253288
 C         0.231371         0.028850         0.745997
 O         1.197548         0.200488         1.426892
 O        -0.544808         1.091891         0.418251
 H        -3.337560        -2.421955         0.923526
 H        -3.899254        -1.328433        -0.443117
 H        -2.584107        -2.620909        -0.493602
 H        -2.224704        -0.536240         1.593845
 H        -2.327589         1.124484        -0.762309
 H        -1.307672        -1.330982        -2.011965
 H         0.090486        -0.185823        -1.797019
 H        -0.778379        -3.334862         0.346288
 H         0.600603        -2.781360        -0.654024
 H         0.548083        -2.722899         1.148269
