19
Iteration:  4499
 C        -3.108469        -1.715815         0.308102
 C        -1.907621        -0.825966         0.571898
 C        -1.704267         0.381550        -0.275845
 C        -0.889191        -0.424804        -1.338747
 C        -0.427933        -1.166805        -0.061482
 C         0.194875        -2.516214        -0.185921
 C         0.233501         0.020123         0.664452
 O         1.121716         0.077336         1.522313
 O        -0.632694         1.065399         0.601358
 H        -2.918695        -2.630732         0.832209
 H        -4.117059        -1.339393         0.476399
 H        -3.004053        -1.947539        -0.756102
 H        -1.747448        -0.574490         1.612440
 H        -2.578276         1.050049        -0.491100
 H        -1.534463        -1.027293        -2.057627
 H        -0.095764         0.057067        -1.992789
 H        -0.646378        -3.291455        -0.290398
 H         0.888410        -2.559162        -1.089560
 H         0.917674        -2.705742         0.654742
