19
Iteration:  2438
 C        -3.126896        -1.602809        -0.063717
 C        -1.977309        -0.684115         0.495185
 C        -1.546558         0.323647        -0.506274
 C        -0.832446        -0.687748        -1.235540
 C        -0.532722        -1.221427         0.215271
 C         0.120559        -2.599813         0.612054
 C         0.169604         0.052478         0.705590
 O         1.058180         0.091750         1.495330
 O        -0.453455         1.191452         0.152621
 H        -3.007651        -1.939588        -1.104188
 H        -3.167409        -2.517213         0.446540
 H        -4.074592        -1.042421        -0.072756
 H        -2.316233        -0.216557         1.405693
 H        -2.167701         0.994867        -1.174802
 H        -1.580193        -1.194870        -1.855230
 H         0.086393        -0.415969        -1.893435
 H         0.067454        -3.416922        -0.089920
 H         1.278345        -2.393154         0.850992
 H        -0.400895        -3.008687         1.500574
