19
Iteration:  4807charge 0 multiplicity 1
 C        -3.013534        -1.788478         0.222496
 C        -1.852577        -0.855963         0.596906
 C        -1.747281         0.508939        -0.281420
 C        -1.105537        -0.339485        -1.402837
 C        -0.553580        -1.115503        -0.060746
 C         0.280707        -2.542866        -0.011432
 C         0.224630         0.043214         0.747519
 O         1.212778        -0.047239         1.454623
 O        -0.597818         1.077960         0.518641
 H        -3.175397        -2.700780         0.816028
 H        -3.969757        -1.320692         0.313093
 H        -2.989468        -2.088436        -0.833789
 H        -1.816207        -0.707020         1.669721
 H        -2.498990         1.319042        -0.236999
 H        -1.789007        -0.992031        -1.974927
 H        -0.326841        -0.007427        -2.134377
 H        -0.007873        -3.305821        -0.716717
 H         1.331873        -2.276638        -0.163410
 H         0.290116        -2.991091         1.021439
