19
Iteration:  3307charge 0 multiplicity 1
 C        -3.111947        -1.733501         0.382014
 C        -1.947223        -0.782273         0.491247
 C        -1.619824         0.375839        -0.516400
 C        -0.695176        -0.549996        -1.356194
 C        -0.443003        -1.144858        -0.007594
 C         0.007943        -2.556158         0.050785
 C         0.211910         0.044292         0.730473
 O         1.094264         0.152907         1.543563
 O        -0.581822         1.105464         0.460216
 H        -3.942779        -1.415217         1.070825
 H        -3.599864        -1.776151        -0.561987
 H        -2.684615        -2.782510         0.508662
 H        -2.045891        -0.277381         1.449452
 H        -2.214215         1.245730        -0.896382
 H        -1.437294        -1.264676        -1.946654
 H         0.097989        -0.200105        -2.038086
 H         0.500210        -2.748608        -0.973360
 H         0.795823        -3.037472         0.842201
 H        -0.817587        -3.371445         0.251858
