19
Iteration:  3780charge 0 multiplicity 1
 C        -3.038122        -1.763728         0.331104
 C        -1.975296        -0.732888         0.591998
 C        -1.670069         0.466579        -0.273258
 C        -0.983469        -0.466386        -1.349871
 C        -0.419300        -1.112157        -0.127988
 C         0.251949        -2.443766        -0.060116
 C         0.173190        -0.029075         0.694409
 O         1.093005        -0.083246         1.443215
 O        -0.584912         1.090533         0.528172
 H        -2.979606        -2.196508        -0.696229
 H        -2.698924        -2.622969         0.996071
 H        -3.938550        -1.298986         0.735778
 H        -1.889882        -0.462144         1.640017
 H        -2.444529         1.225551        -0.443453
 H        -1.674691        -1.076473        -2.031048
 H        -0.270017        -0.107494        -2.178381
 H         0.938284        -2.495439        -0.829822
 H         0.800350        -2.483073         0.862560
 H        -0.361419        -3.285294        -0.215469
