19
Iteration:  4165charge 0 multiplicity 1
 C        -3.089131        -1.842928        -0.013594
 C        -2.055309        -0.912554         0.630142
 C        -1.705206         0.390284        -0.082074
 C        -0.972521        -0.257272        -1.228761
 C        -0.584608        -1.135679         0.049469
 C         0.192191        -2.386923         0.222900
 C         0.261110        -0.020548         0.661436
 O         1.446936         0.004890         0.899359
 O        -0.680975         1.066480         0.718748
 H        -3.227605        -2.715540         0.613276
 H        -4.014823        -1.469642        -0.254450
 H        -2.706431        -2.382577        -0.883840
 H        -1.971420        -0.794431         1.681440
 H        -2.373337         1.180818        -0.521924
 H        -1.600115        -0.808551        -1.925990
 H        -0.273939         0.491491        -1.514455
 H         1.263696        -2.224239         0.351486
 H        -0.082460        -2.881173         1.239319
 H        -0.142021        -3.212885        -0.499630
