19
Iteration:   853
 C        -3.130873        -1.667958         0.928091
 C        -1.909822        -0.594306         0.893082
 C        -1.796953         0.410986        -0.284195
 C        -1.231218        -0.607290        -1.139972
 C        -0.516013        -1.137844         0.075144
 C        -0.027191        -2.629977         0.185398
 C         0.383449         0.042270         0.355457
 O         1.578856        -0.049035         0.533682
 O        -0.497814         1.173782         0.347347
 H        -2.889660        -2.550274         1.488439
 H        -4.126277        -1.186521         1.227644
 H        -3.460038        -2.083141        -0.038532
 H        -1.765649        -0.029674         1.848778
 H        -2.491838         1.229170        -0.666786
 H        -1.921081        -1.365844        -1.430862
 H        -0.587810        -0.331560        -1.995075
 H        -0.796698        -3.360599        -0.147363
 H         0.675915        -2.722257        -0.640212
 H         0.511949        -3.042847         1.122189
