19
Iteration:   169charge 0 multiplicity 1
 C        -2.831487        -1.538376         1.388946
 C        -1.729940        -0.653422         1.032832
 C        -1.831848         0.560286         0.035830
 C        -1.585805        -0.546294        -1.077467
 C        -0.618053        -1.175727        -0.054226
 C        -0.086944        -2.622590         0.053668
 C         0.370158        -0.063185         0.034263
 O         1.564835        -0.080663         0.076889
 O        -0.410052         1.075311         0.302037
 H        -2.391296        -2.452813         1.876623
 H        -3.399694        -1.119970         2.243376
 H        -3.621562        -1.917709         0.714494
 H        -1.307325        -0.356786         1.987763
 H        -2.539883         1.378649         0.115582
 H        -2.470911        -1.264971        -1.187990
 H        -1.300848        -0.426496        -2.172201
 H        -0.724760        -3.113425         0.780985
 H        -0.213830        -3.209684        -0.862796
 H         0.964816        -2.620815         0.465995
