19
Iteration:  1795
 C        -3.252757        -1.578845         0.075675
 C        -2.022159        -0.748392         0.439106
 C        -1.596441         0.401202        -0.504930
 C        -0.719763        -0.615024        -1.349971
 C        -0.473913        -1.181736         0.170272
 C         0.024477        -2.487874         0.724687
 C         0.189707         0.010275         0.701488
 O         1.305696         0.069176         1.170701
 O        -0.573320         1.036450         0.382923
 H        -3.174688        -2.639438         0.327134
 H        -4.061226        -1.185238         0.617648
 H        -3.568245        -1.540973        -0.932799
 H        -2.083674        -0.498930         1.512169
 H        -2.288047         1.038664        -0.961789
 H        -1.298301        -1.447281        -1.856215
 H         0.121166        -0.271773        -1.895216
 H        -0.191171        -2.595385         1.789513
 H        -0.390066        -3.291616         0.021742
 H         1.116007        -2.514130         0.486311
