19
Iteration:  4548charge 0 multiplicity 1
 C        -3.015063        -1.939417         0.295516
 C        -2.018054        -0.810293         0.645932
 C        -1.711490         0.514684        -0.291132
 C        -0.963655        -0.329927        -1.357849
 C        -0.554402        -1.091108        -0.122240
 C         0.235271        -2.400051        -0.029909
 C         0.292647        -0.015470         0.694314
 O         1.143471        -0.141213         1.505341
 O        -0.563978         1.133447         0.398355
 H        -2.730805        -2.964682         0.675373
 H        -3.868636        -1.719623         1.020393
 H        -3.356209        -1.891232        -0.771697
 H        -1.926413        -0.603846         1.798334
 H        -2.476143         1.294498        -0.387333
 H        -1.612881        -0.769283        -2.083893
 H        -0.163244         0.088911        -1.942390
 H         0.026604        -3.182941        -0.717917
 H         1.285932        -2.178351        -0.011341
 H         0.046817        -2.754561         0.997108
