19
Iteration:  3263charge 0 multiplicity 1
 C        -3.080687        -1.706802         0.036472
 C        -1.979265        -0.790703         0.549797
 C        -1.642132         0.387115        -0.320993
 C        -0.874279        -0.469765        -1.260953
 C        -0.542145        -1.203680         0.110319
 C         0.085566        -2.488977         0.292593
 C         0.219443         0.035496         0.689177
 O         1.220486         0.080384         1.341689
 O        -0.545571         1.049394         0.394162
 H        -3.963822        -1.863835         0.736135
 H        -3.588379        -1.358662        -0.832772
 H        -2.660238        -2.729354        -0.182785
 H        -2.124677        -0.566071         1.607423
 H        -2.398799         1.079308        -0.714035
 H        -1.460795        -0.989317        -2.113361
 H        -0.071177        -0.001658        -1.820681
 H         0.424007        -3.051648        -0.645715
 H         1.039071        -2.322253         1.016976
 H        -0.546398        -3.086042         1.070328
