19
Iteration:  4698charge 0 multiplicity 1
 C        -3.046090        -1.811992         0.038295
 C        -1.927585        -0.873617         0.565341
 C        -1.799751         0.497766        -0.123851
 C        -1.018028        -0.319717        -1.284272
 C        -0.477016        -1.131268         0.011729
 C         0.204662        -2.472457         0.111926
 C         0.214975        -0.056293         0.706699
 O         1.234114         0.018681         1.318735
 O        -0.547354         1.080280         0.510245
 H        -2.894443        -2.801954         0.443132
 H        -3.952047        -1.427318         0.351855
 H        -3.041734        -1.907794        -1.022740
 H        -1.730758        -1.010632         1.556418
 H        -2.632791         1.193325        -0.318299
 H        -1.532185        -0.993861        -2.027606
 H        -0.252792         0.334837        -1.812003
 H        -0.585035        -3.226126         0.011985
 H         0.806345        -2.675450        -0.800714
 H         0.697241        -2.716380         1.101816
