19
Iteration:  4936
 C        -3.023422        -1.718704         0.090548
 C        -1.926969        -0.798171         0.557570
 C        -1.803701         0.446946        -0.176878
 C        -0.920662        -0.414679        -1.321348
 C        -0.558361        -1.159323         0.044329
 C         0.192200        -2.424555         0.098574
 C         0.237103         0.018410         0.644729
 O         1.269362        -0.073612         1.284042
 O        -0.641690         1.058353         0.573506
 H        -2.711031        -2.604302         0.717455
 H        -4.108811        -1.455817         0.228387
 H        -2.824545        -2.240941        -0.925309
 H        -1.936500        -0.790688         1.714728
 H        -2.673699         1.117927        -0.295007
 H        -1.608026        -0.879693        -1.995581
 H        -0.128838         0.223182        -1.676660
 H        -0.182380        -3.311756        -0.363406
 H         1.084124        -2.117407        -0.459289
 H         0.372953        -2.758975         1.137771
