19
Iteration:   524
 C        -2.977222        -1.611679         1.319270
 C        -1.825670        -0.642384         1.050803
 C        -1.691009         0.512811        -0.241687
 C        -1.387559        -0.636709        -1.295873
 C        -0.562209        -1.198148        -0.019341
 C        -0.061783        -2.601731         0.162982
 C         0.324579        -0.035888         0.226664
 O         1.456187        -0.030700         0.537257
 O        -0.438615         1.139384         0.060622
 H        -2.673111        -2.693819         1.181439
 H        -3.388936        -1.485160         2.290969
 H        -3.792135        -1.410549         0.609415
 H        -1.368406        -0.312761         2.011979
 H        -2.413664         1.318629        -0.451694
 H        -2.310770        -1.177692        -1.536363
 H        -0.779777        -0.301241        -2.063287
 H         0.906398        -2.783606        -0.374194
 H         0.204157        -2.616177         1.235177
 H        -0.796423        -3.373379         0.097466
