19
Iteration:   383
 C        -2.985738        -1.540576         1.281318
 C        -1.773275        -0.569231         0.965265
 C        -1.845625         0.464503        -0.087817
 C        -1.417380        -0.634160        -1.144332
 C        -0.581563        -1.169811         0.055799
 C        -0.043324        -2.618479         0.153490
 C         0.363896        -0.055749         0.150523
 O         1.560047        -0.042187         0.227445
 O        -0.460711         1.063174         0.233360
 H        -3.735234        -1.089890         2.019599
 H        -3.528662        -1.733960         0.382175
 H        -2.696109        -2.546855         1.659060
 H        -1.446116        -0.123652         1.926616
 H        -2.474560         1.393600        -0.203187
 H        -2.316172        -1.260911        -1.368193
 H        -0.832973        -0.281390        -1.942938
 H        -0.771695        -3.421859         0.272058
 H         0.679935        -2.799644        -0.630493
 H         0.628091        -2.654271         1.019296
