19
Iteration:   275charge 0 multiplicity 1
 C        -3.054797        -1.464995         1.601206
 C        -1.721942        -0.649914         1.105065
 C        -1.823661         0.464103        -0.034832
 C        -1.469783        -0.528725        -1.201433
 C        -0.626108        -1.258820        -0.088504
 C         0.056526        -2.628360        -0.042166
 C         0.356391        -0.014438         0.138230
 O         1.591962        -0.109415         0.281807
 O        -0.504876         1.050667         0.102716
 H        -3.316896        -2.159195         0.758702
 H        -2.932121        -2.035035         2.475611
 H        -3.836234        -0.684097         1.682107
 H        -1.201797        -0.153909         1.947708
 H        -2.510847         1.376037        -0.045758
 H        -2.275816        -1.134984        -1.630408
 H        -0.980011        -0.054011        -1.990824
 H         1.057817        -2.406992        -0.245900
 H         0.094190        -3.079637         0.942999
 H        -0.392962        -3.426041        -0.780568
