19
Iteration:  3639
 C        -3.093785        -1.787798         0.166797
 C        -1.977635        -0.903975         0.575237
 C        -1.642278         0.446382        -0.262017
 C        -0.933919        -0.307918        -1.288105
 C        -0.546302        -1.150035        -0.006729
 C         0.181190        -2.442886         0.239088
 C         0.233918        -0.010141         0.626677
 O         1.297041        -0.019672         1.203665
 O        -0.630109         1.064561         0.536248
 H        -4.115873        -1.482932         0.436586
 H        -3.232327        -1.830045        -0.947624
 H        -2.858807        -2.772340         0.563497
 H        -2.067569        -0.699135         1.640292
 H        -2.464392         1.156012        -0.408899
 H        -1.709006        -0.817421        -1.885424
 H        -0.167774         0.097598        -1.958637
 H         1.255237        -2.304187         0.378226
 H        -0.210995        -2.623770         1.297914
 H        -0.066345        -3.230358        -0.517142
