19
Iteration:   803charge 0 multiplicity 1
 C        -3.044165        -1.580155         0.946560
 C        -1.789828        -0.720652         0.888181
 C        -1.794686         0.441794        -0.129914
 C        -1.442188        -0.504788        -1.159287
 C        -0.586510        -1.200008         0.005660
 C        -0.022613        -2.695456         0.210968
 C         0.457601         0.028383         0.246251
 O         1.544537         0.018630         0.790918
 O        -0.445522         1.141833        -0.007072
 H        -2.887511        -2.683522         1.031399
 H        -3.703668        -1.287829         1.786366
 H        -3.692410        -1.588184         0.031365
 H        -1.518532        -0.491855         1.941290
 H        -2.632942         1.119715        -0.199121
 H        -2.306415        -1.184952        -1.460702
 H        -0.852723        -0.008407        -1.945134
 H         0.426637        -3.323102        -0.616890
 H         0.805547        -2.781009         1.052468
 H        -0.848708        -3.224109         0.744444
