19
Iteration:  1111
 C        -3.142410        -1.656905         0.760610
 C        -1.849965        -0.717305         0.756458
 C        -1.769847         0.417532        -0.165339
 C        -1.134260        -0.491501        -1.290631
 C        -0.475676        -1.153197         0.018393
 C        -0.102618        -2.641690         0.279986
 C         0.376173         0.007222         0.448933
 O         1.553273         0.028457         0.765515
 O        -0.549732         1.090913         0.275506
 H        -3.021884        -2.703261         0.367247
 H        -3.670994        -1.459618         1.717709
 H        -3.856486        -1.190408         0.045895
 H        -1.887861        -0.319968         1.774003
 H        -2.668269         1.039653        -0.428230
 H        -1.764269        -1.115089        -1.865360
 H        -0.282099         0.021048        -1.836773
 H        -0.529195        -3.032057         1.225633
 H        -0.448776        -3.253077        -0.705999
 H         0.959544        -2.729061         0.372450
