19
Iteration:   717
 C        -3.137067        -1.482249         1.115823
 C        -1.838080        -0.704568         0.919981
 C        -1.698311         0.413156        -0.136114
 C        -1.257307        -0.627897        -1.258761
 C        -0.653613        -1.235439         0.007113
 C        -0.029243        -2.599715         0.119774
 C         0.390983        -0.039479         0.240076
 O         1.553411         0.059133         0.589040
 O        -0.500836         1.059889         0.231056
 H        -3.170614        -1.842083         2.161501
 H        -3.835430        -0.668054         0.950991
 H        -3.450600        -2.229298         0.365217
 H        -1.427328        -0.352532         1.879424
 H        -2.541239         1.113875        -0.211035
 H        -2.080144        -1.313667        -1.674767
 H        -0.589187        -0.325380        -2.111737
 H         0.966380        -2.447232         0.625092
 H        -0.638101        -3.403488         0.640722
 H         0.295650        -2.787677        -0.829068
