19
Iteration:  3227
 C        -3.157844        -1.670731        -0.197550
 C        -2.011933        -0.830801         0.540882
 C        -1.673541         0.372248        -0.297810
 C        -0.932357        -0.524043        -1.248017
 C        -0.540571        -1.179819         0.227864
 C         0.238701        -2.503498         0.476854
 C         0.210066         0.062265         0.738345
 O         1.317951         0.036697         1.149928
 O        -0.571831         1.107202         0.490784
 H        -3.949273        -1.844928         0.538216
 H        -3.573287        -1.130445        -1.096645
 H        -2.813783        -2.674142        -0.478577
 H        -2.317456        -0.573724         1.588019
 H        -2.315532         1.119166        -0.670883
 H        -1.725821        -1.031705        -1.759415
 H        -0.304107         0.093773        -1.932604
 H         0.114544        -3.306090        -0.309679
 H         1.288900        -2.307883         0.671522
 H        -0.242430        -3.016052         1.363959
