19
Iteration:   916charge 0 multiplicity 1
 C        -3.202935        -1.511814         0.744348
 C        -1.752316        -0.732880         0.875433
 C        -1.733763         0.457099        -0.057199
 C        -1.417716        -0.698768        -1.157381
 C        -0.501301        -1.184748        -0.073521
 C         0.131196        -2.597065         0.199293
 C         0.388154         0.015797         0.328183
 O         1.522691        -0.032868         0.717199
 O        -0.511272         1.168240         0.246288
 H        -3.488210        -1.656540         1.787328
 H        -3.953111        -0.763637         0.439621
 H        -3.124946        -2.370098         0.110935
 H        -1.476240        -0.526737         1.941480
 H        -2.677685         1.068461        -0.140109
 H        -2.287336        -1.349177        -1.311602
 H        -0.977455        -0.415918        -2.162109
 H         0.265196        -2.838462         1.272005
 H        -0.668650        -3.294833        -0.202011
 H         0.974859        -2.651872        -0.442942
