19
Iteration:  2307
 C        -3.156126        -1.525774        -0.151694
 C        -2.023628        -0.814686         0.489754
 C        -1.607884         0.385348        -0.472242
 C        -0.777885        -0.722195        -1.316351
 C        -0.522782        -1.194460         0.129961
 C         0.087024        -2.502868         0.721389
 C         0.200149         0.045384         0.766345
 O         1.150928         0.160102         1.488628
 O        -0.467041         1.025862         0.161055
 H        -3.026487        -1.701914        -1.188010
 H        -3.499328        -2.385353         0.348066
 H        -4.054229        -0.910559        -0.105751
 H        -2.147854        -0.653489         1.584685
 H        -2.487584         1.088969        -0.753538
 H        -1.383849        -1.364799        -1.922334
 H         0.084821        -0.293403        -1.927117
 H        -0.681596        -3.235941         0.710006
 H         1.041028        -2.963775         0.213756
 H         0.514061        -2.265599         1.686442
