19
Iteration:  2694charge 0 multiplicity 1
 C        -3.103400        -1.777139         0.018421
 C        -2.033281        -0.713067         0.393634
 C        -1.550413         0.370387        -0.513885
 C        -0.730068        -0.507341        -1.391608
 C        -0.494320        -1.162822         0.166782
 C        -0.063339        -2.530434         0.735328
 C         0.237168        -0.002285         0.762417
 O         1.235978         0.128742         1.448081
 O        -0.619322         1.086734         0.188181
 H        -3.248264        -1.877836        -1.024978
 H        -2.694426        -2.699825         0.417028
 H        -4.034111        -1.553667         0.436782
 H        -2.221232        -0.281173         1.443256
 H        -2.177508         1.168877        -1.060771
 H        -1.146649        -1.197324        -2.114748
 H         0.239863        -0.135167        -1.871134
 H        -0.813085        -3.331102         0.335397
 H         0.960713        -2.747047         0.397019
 H        -0.195542        -2.578127         1.854621
