19
Iteration:  2260charge 0 multiplicity 1
 C        -3.206089        -1.683578         0.006750
 C        -2.076873        -0.661831         0.330878
 C        -1.435947         0.492423        -0.628096
 C        -0.563962        -0.768069        -1.160360
 C        -0.568608        -1.243223         0.250485
 C        -0.038419        -2.645847         0.577444
 C         0.096866        -0.024351         0.848229
 O         1.223973         0.246601         1.232095
 O        -0.597141         1.156874         0.388601
 H        -3.187529        -2.176769        -0.963474
 H        -3.165438        -2.361861         0.806657
 H        -4.224888        -1.353349         0.087346
 H        -2.370466        -0.060880         1.201106
 H        -1.837001         1.217503        -1.336702
 H        -1.045957        -1.585125        -1.853870
 H         0.449404        -0.486454        -1.531955
 H        -0.505324        -3.417599        -0.148828
 H         1.066587        -2.671153         0.454408
 H        -0.011233        -2.797338         1.698491
