19
Iteration:  4572
 C        -2.915024        -1.798236         0.165736
 C        -1.899562        -0.824056         0.560842
 C        -1.763163         0.460388        -0.255099
 C        -1.027054        -0.337907        -1.298959
 C        -0.498970        -1.126122        -0.024210
 C         0.197880        -2.557275         0.044050
 C         0.152948         0.038477         0.717909
 O         1.183217        -0.028486         1.376758
 O        -0.557831         1.107770         0.503742
 H        -2.663603        -2.780573         0.670925
 H        -3.856711        -1.535253         0.771392
 H        -3.071659        -1.874047        -0.908646
 H        -1.943000        -0.536773         1.653964
 H        -2.532016         1.235142        -0.237272
 H        -1.778144        -0.952420        -1.807267
 H        -0.446235         0.010914        -2.136452
 H        -0.071500        -3.072807        -0.902768
 H         1.260146        -2.508058         0.107752
 H        -0.183896        -3.177383         0.831903
