19
Iteration:   318
 C        -2.895028        -1.475876         1.258139
 C        -1.666955        -0.543290         1.120386
 C        -1.783937         0.478093        -0.043140
 C        -1.674712        -0.690074        -1.078139
 C        -0.630526        -1.250939         0.013664
 C        -0.072852        -2.655220         0.017251
 C         0.441956        -0.039532         0.089500
 O         1.633994        -0.028953         0.339867
 O        -0.507395         1.110935         0.144884
 H        -3.523102        -1.287713         0.365044
 H        -2.526639        -2.462212         1.190389
 H        -3.543515        -1.345545         2.126420
 H        -1.145536        -0.144892         2.011651
 H        -2.645921         1.212675        -0.038207
 H        -2.532725        -1.343457        -1.126321
 H        -1.209321        -0.489436        -1.980545
 H         0.227620        -2.928026        -0.948405
 H         0.762290        -2.711071         0.689284
 H        -0.800752        -3.351824         0.423908
