19
Iteration:  3766
 C        -3.002454        -1.804960         0.297080
 C        -1.935869        -0.762293         0.585880
 C        -1.762158         0.545343        -0.322453
 C        -1.029489        -0.379525        -1.415895
 C        -0.477556        -1.115788        -0.065147
 C         0.285527        -2.458760         0.078258
 C         0.245828        -0.032142         0.689984
 O         1.201409        -0.140567         1.408316
 O        -0.640260         1.070650         0.507541
 H        -3.321421        -1.713333        -0.710595
 H        -2.880082        -2.880946         0.493058
 H        -3.990342        -1.627388         0.689266
 H        -1.909058        -0.513254         1.678328
 H        -2.427136         1.408570        -0.575359
 H        -1.731007        -1.076844        -1.721132
 H        -0.310821         0.231723        -2.038865
 H         1.060202        -2.606753        -0.702690
 H         0.816039        -2.460536         1.014656
 H        -0.488161        -3.211970         0.101144
