19
Iteration:  3456
 C        -3.055855        -1.771226         0.040768
 C        -1.976849        -0.812590         0.521508
 C        -1.720983         0.444514        -0.262691
 C        -0.849810        -0.465693        -1.160267
 C        -0.527676        -1.195500         0.126249
 C        -0.033521        -2.644526         0.251413
 C         0.265009         0.014244         0.695794
 O         1.398782         0.206735         1.060601
 O        -0.641247         1.124607         0.600417
 H        -2.699071        -2.508101        -0.765976
 H        -3.643691        -2.331943         0.806953
 H        -3.673135        -1.085955        -0.624235
 H        -2.182525        -0.655673         1.653696
 H        -2.407299         1.147152        -0.732045
 H        -1.533099        -1.163031        -1.846006
 H         0.006119         0.012830        -1.676704
 H         1.057914        -2.751762         0.241923
 H        -0.203745        -2.999845         1.316703
 H        -0.357146        -3.447379        -0.451541
