19
Iteration:  3934charge 0 multiplicity 1
 C        -3.065548        -1.702503        -0.025940
 C        -2.019270        -0.920309         0.635032
 C        -1.786741         0.362127        -0.097799
 C        -0.921995        -0.359921        -1.274396
 C        -0.519468        -1.168005         0.127815
 C         0.071994        -2.568616         0.136279
 C         0.328565         0.048886         0.718283
 O         1.467444         0.163958         0.945046
 O        -0.727407         1.023174         0.746909
 H        -2.909163        -2.716193         0.382224
 H        -4.069553        -1.356124         0.114311
 H        -2.898563        -1.837125        -1.110109
 H        -2.167873        -0.690677         1.679508
 H        -2.547998         1.100790        -0.308069
 H        -1.392091        -0.926126        -2.184399
 H        -0.009031         0.199860        -1.623385
 H         1.013843        -2.418028        -0.401099
 H         0.332699        -3.003600         1.130842
 H        -0.557955        -3.306343        -0.325573
