19
Iteration:   568charge 0 multiplicity 1
 C        -3.115672        -1.487482         1.051398
 C        -1.719441        -0.652192         1.091595
 C        -1.734026         0.457421        -0.086730
 C        -1.470024        -0.710686        -1.095189
 C        -0.649646        -1.218779         0.080794
 C         0.048775        -2.623237         0.089288
 C         0.338643        -0.036766         0.246444
 O         1.502620         0.083077         0.574539
 O        -0.387019         1.078295        -0.025905
 H        -2.864363        -2.580811         1.021853
 H        -3.828038        -1.256023         1.806081
 H        -3.514354        -1.264569         0.066609
 H        -1.194465        -0.274109         1.990875
 H        -2.410332         1.273866        -0.279478
 H        -2.265363        -1.453675        -1.216114
 H        -0.920873        -0.457925        -1.932824
 H        -0.301591        -3.078682        -0.872549
 H         1.129409        -2.673964         0.191028
 H        -0.362660        -3.215154         0.924432
