19
Iteration:  2758charge 0 multiplicity 1
 C        -3.165373        -1.664038        -0.197106
 C        -2.179533        -0.664815         0.452518
 C        -1.652848         0.300758        -0.520965
 C        -0.731904        -0.673081        -1.189830
 C        -0.533849        -1.215883         0.355232
 C         0.066374        -2.607244         0.651208
 C         0.243606         0.081031         0.745942
 O         1.334771         0.261279         1.285486
 O        -0.563169         1.072965         0.308408
 H        -2.655991        -2.421103        -0.782365
 H        -3.870027        -2.267105         0.555888
 H        -3.858236        -1.130411        -0.876443
 H        -2.376516        -0.388200         1.492186
 H        -2.304774         1.178420        -1.000438
 H        -1.122292        -1.525561        -1.823278
 H         0.225074        -0.137931        -1.624862
 H        -0.470436        -3.461801         0.138204
 H         0.987487        -2.604939         0.221146
 H         0.228342        -2.922243         1.684590
