19
Iteration:  2619
 C        -3.336774        -1.537533         0.249135
 C        -1.972350        -0.753133         0.442956
 C        -1.441980         0.369433        -0.583162
 C        -0.659815        -0.762618        -1.386877
 C        -0.523806        -1.272412         0.121617
 C         0.212922        -2.532472         0.403997
 C         0.187604         0.031081         0.752921
 O         0.926521         0.162926         1.670345
 O        -0.496675         1.126122         0.094071
 H        -3.409061        -2.019569        -0.733886
 H        -3.390619        -2.333576         0.995302
 H        -4.153705        -0.809390         0.400483
 H        -1.846803        -0.492979         1.556592
 H        -2.207875         1.149474        -0.927460
 H        -1.370673        -1.313974        -1.965045
 H         0.296212        -0.428881        -1.907722
 H        -0.164299        -3.434305        -0.234564
 H         1.285059        -2.330399         0.109679
 H         0.172454        -2.778490         1.516557
