19
Iteration:  4513
 C        -3.061240        -1.788522         0.366901
 C        -1.901701        -0.852271         0.576746
 C        -1.678546         0.495857        -0.325235
 C        -0.895833        -0.349159        -1.355806
 C        -0.461082        -1.141597        -0.105371
 C         0.246663        -2.495289        -0.155939
 C         0.237404        -0.005274         0.801507
 O         1.153481        -0.053275         1.526872
 O        -0.724363         1.094419         0.454197
 H        -2.887150        -2.782539         0.817356
 H        -3.900241        -1.281873         0.838875
 H        -3.468887        -1.960914        -0.701058
 H        -1.937560        -0.533959         1.686514
 H        -2.411139         1.278482        -0.613995
 H        -1.622623        -0.941897        -1.885821
 H        -0.074609         0.095941        -1.930954
 H        -0.417877        -3.301588        -0.431092
 H         1.062570        -2.510473        -0.908849
 H         0.643052        -2.748017         0.856768
