19
Iteration:  4050charge 0 multiplicity 1
 C        -3.034905        -1.832949         0.483468
 C        -1.864767        -0.804131         0.558429
 C        -1.685496         0.430664        -0.237338
 C        -1.083027        -0.320140        -1.362816
 C        -0.457801        -1.111837        -0.090682
 C         0.251778        -2.392191        -0.144723
 C         0.210325        -0.004799         0.661908
 O         1.011281        -0.123240         1.546870
 O        -0.496000         1.079723         0.351535
 H        -2.644360        -2.763531         0.929220
 H        -4.091788        -1.398450         0.716388
 H        -2.984832        -2.103939        -0.584280
 H        -1.834167        -0.421862         1.648180
 H        -2.418813         1.206741        -0.300019
 H        -1.775354        -1.034521        -1.780191
 H        -0.387663         0.076246        -2.112490
 H         1.127583        -2.222178        -0.847421
 H         0.740021        -2.592031         0.816819
 H        -0.330629        -3.291457        -0.226131
