19
Iteration:   714charge 0 multiplicity 1
 C        -3.101986        -1.470365         1.094364
 C        -1.824629        -0.678599         0.920414
 C        -1.709411         0.397369        -0.127162
 C        -1.294202        -0.619797        -1.275345
 C        -0.664547        -1.262754         0.002820
 C        -0.017046        -2.609828         0.145210
 C         0.388478        -0.046187         0.249264
 O         1.550307         0.068552         0.583267
 O        -0.499148         1.065938         0.240911
 H        -3.158096        -1.856568         2.102535
 H        -3.867454        -0.649570         0.876669
 H        -3.318150        -2.259157         0.338418
 H        -1.457798        -0.318024         1.908362
 H        -2.535920         1.178421        -0.145098
 H        -2.070277        -1.299361        -1.602255
 H        -0.563605        -0.375802        -2.106669
 H         0.906627        -2.573371         0.729687
 H        -0.690119        -3.368725         0.585721
 H         0.315073        -2.812435        -0.975755
