19
Iteration:   893charge 0 multiplicity 1
 C        -3.181389        -1.477591         0.796224
 C        -1.802227        -0.724419         0.970666
 C        -1.792537         0.423100        -0.117212
 C        -1.329987        -0.554500        -1.171184
 C        -0.553766        -1.256133         0.111855
 C         0.105126        -2.616037         0.158309
 C         0.338941        -0.048684         0.337519
 O         1.510140         0.075122         0.613449
 O        -0.452382         1.024480         0.206493
 H        -3.600715        -1.933252         1.723796
 H        -3.922028        -0.746082         0.500558
 H        -3.009282        -2.172696        -0.019189
 H        -1.439373        -0.493723         1.981186
 H        -2.572051         1.158413        -0.330785
 H        -2.140382        -1.166293        -1.648709
 H        -0.794749         0.022601        -1.947530
 H        -0.253544        -3.161452         1.050015
 H        -0.012626        -3.354138        -0.709924
 H         1.110845        -2.361931         0.266518
