19
Iteration:  3623charge 0 multiplicity 1
 C        -2.990684        -1.787072         0.160127
 C        -1.898704        -0.779848         0.540457
 C        -1.742468         0.520041        -0.208009
 C        -1.024653        -0.478850        -1.399531
 C        -0.536280        -1.157731        -0.049039
 C         0.152824        -2.485939         0.190776
 C         0.185357        -0.000170         0.686920
 O         1.219122        -0.041723         1.338388
 O        -0.547150         1.136141         0.521509
 H        -3.832072        -1.704651         0.879883
 H        -3.402559        -1.743562        -0.885949
 H        -2.573566        -2.812624         0.349830
 H        -1.818558        -0.632599         1.652449
 H        -2.473319         1.300334        -0.432109
 H        -1.768354        -1.073497        -1.928153
 H        -0.205046        -0.038570        -2.070093
 H         1.231686        -2.338850         0.011036
 H         0.128132        -2.836431         1.178982
 H        -0.100983        -3.255070        -0.521540
