19
Iteration:  4145charge 0 multiplicity 1
 C        -3.027715        -1.790488        -0.016272
 C        -1.938288        -0.943848         0.586753
 C        -1.806904         0.524247        -0.095594
 C        -1.008318        -0.385666        -1.195605
 C        -0.496686        -1.131193         0.061342
 C         0.171153        -2.492440         0.194364
 C         0.224672         0.033225         0.678117
 O         1.398916         0.027928         0.952218
 O        -0.671308         1.077236         0.703364
 H        -2.949281        -2.772701         0.446783
 H        -4.023285        -1.338310         0.103196
 H        -2.899641        -2.000784        -1.059078
 H        -2.297393        -0.899095         1.611243
 H        -2.587730         1.301363        -0.044196
 H        -1.476708        -1.049435        -1.932237
 H        -0.135647         0.182666        -1.761893
 H         1.203017        -2.367090        -0.112900
 H         0.123060        -2.911108         1.167681
 H        -0.326724        -3.253852        -0.413478
