19
Iteration:  3951
 C        -3.165847        -1.815134         0.042538
 C        -1.977606        -0.922670         0.602458
 C        -1.726217         0.414823        -0.175156
 C        -0.862617        -0.341745        -1.116332
 C        -0.480345        -1.206924         0.128787
 C         0.058546        -2.564238         0.000555
 C         0.286359        -0.020318         0.749072
 O         1.404824         0.280560         1.005245
 O        -0.650541         1.015525         0.647889
 H        -3.488473        -2.637211         0.690638
 H        -3.956245        -1.001964         0.027540
 H        -2.912397        -2.062996        -0.984164
 H        -2.000435        -0.812315         1.729318
 H        -2.538359         1.137165        -0.365522
 H        -1.467400        -0.918351        -1.742974
 H        -0.160157         0.363796        -1.548437
 H         1.036963        -2.856010        -0.535360
 H         0.214790        -2.890877         1.046550
 H        -0.693167        -3.242303        -0.497839
