19
Iteration:  2324
 C        -3.167414        -1.603023        -0.114065
 C        -1.962558        -0.715019         0.450063
 C        -1.525049         0.397022        -0.483128
 C        -0.880420        -0.664670        -1.313631
 C        -0.524471        -1.294272         0.186173
 C         0.137685        -2.607125         0.693339
 C         0.245634         0.005555         0.669065
 O         1.008173         0.134540         1.554324
 O        -0.432659         1.198179         0.166098
 H        -3.070645        -1.958226        -1.194240
 H        -3.230075        -2.552753         0.636685
 H        -4.164176        -1.076520        -0.037756
 H        -2.140669        -0.395976         1.486915
 H        -2.052700         1.121367        -1.030940
 H        -1.542342        -1.259398        -2.046999
 H        -0.089510        -0.482548        -2.018403
 H        -0.629243        -3.435219         0.926498
 H         0.934135        -2.801198         0.046205
 H         0.580430        -2.360282         1.700871
