19
Iteration:   690charge 0 multiplicity 1
 C        -2.974044        -1.580715         0.890506
 C        -1.782769        -0.598821         0.965314
 C        -1.732852         0.490342        -0.120304
 C        -1.464267        -0.597565        -1.080612
 C        -0.511856        -1.188267         0.067879
 C        -0.096379        -2.730591         0.171060
 C         0.361831        -0.015146         0.321673
 O         1.529908         0.028037         0.526883
 O        -0.458195         1.089241         0.140673
 H        -3.147921        -2.016738         1.875239
 H        -3.795263        -0.880671         0.554541
 H        -2.945827        -2.358533         0.126939
 H        -1.478057        -0.348332         2.000419
 H        -2.533197         1.224981        -0.302051
 H        -2.284815        -1.267869        -1.185087
 H        -1.121038        -0.205487        -2.039339
 H         0.293895        -2.816711         1.180977
 H        -0.910730        -3.416371         0.068573
 H         0.882808        -2.802598        -0.536598
