19
Iteration:  3381
 C        -3.053622        -1.685025         0.153029
 C        -1.942650        -0.728849         0.545028
 C        -1.754640         0.382437        -0.377343
 C        -1.029881        -0.468876        -1.287649
 C        -0.528278        -1.141358         0.039248
 C         0.211177        -2.468611         0.266977
 C         0.224428        -0.039871         0.690912
 O         1.213742        -0.025425         1.390657
 O        -0.499044         1.094109         0.380201
 H        -3.804844        -1.303083        -0.634384
 H        -2.642031        -2.568413        -0.322717
 H        -3.761743        -1.883332         1.011413
 H        -1.872224        -0.685104         1.680124
 H        -2.451259         1.189572        -0.560916
 H        -1.652047        -1.223359        -1.938519
 H        -0.466164        -0.062563        -2.122240
 H         1.210197        -2.132404         0.492400
 H        -0.108669        -2.949302         1.150499
 H         0.280652        -3.340412        -0.400867
