19
Iteration:  2888charge 0 multiplicity 1
 C        -3.112815        -1.621319         0.123270
 C        -1.898495        -0.750679         0.485513
 C        -1.549783         0.327292        -0.521594
 C        -0.732062        -0.710921        -1.406734
 C        -0.484238        -1.217866         0.103786
 C         0.013695        -2.602414         0.465469
 C         0.180196         0.044322         0.755802
 O         1.014739         0.268162         1.627503
 O        -0.520728         1.093759         0.191994
 H        -3.679942        -1.659119         1.061281
 H        -3.824964        -1.233571        -0.740543
 H        -2.750264        -2.650743        -0.001722
 H        -1.948494        -0.293482         1.440148
 H        -2.159907         1.180701        -1.037225
 H        -1.598568        -1.060191        -1.959773
 H         0.016687        -0.393766        -2.109167
 H        -0.582550        -3.435999        -0.037704
 H         0.881531        -2.637922        -0.191044
 H         0.426152        -2.883771         1.452706
