19
Iteration:  3583
 C        -3.068227        -1.779035         0.324857
 C        -1.890391        -0.846055         0.613394
 C        -1.672700         0.450797        -0.313185
 C        -0.913450        -0.522071        -1.337386
 C        -0.527149        -1.164025         0.011385
 C         0.124497        -2.528934        -0.131065
 C         0.212179         0.010212         0.747736
 O         1.088842         0.105595         1.553664
 O        -0.480616         1.142525         0.351496
 H        -3.463002        -1.936877         1.300957
 H        -3.737852        -1.420183        -0.512849
 H        -2.785333        -2.731081        -0.085862
 H        -1.973253        -0.655069         1.651663
 H        -2.459124         1.230647        -0.341182
 H        -1.337107        -1.139590        -2.074120
 H        -0.150549         0.166286        -1.816336
 H         0.863683        -2.388324        -0.938822
 H         0.488980        -2.999350         0.802253
 H        -0.671596        -3.204806        -0.398760
