19
Iteration:   702
 C        -3.009725        -1.426335         0.969950
 C        -1.746501        -0.643360         0.934198
 C        -1.780374         0.438778        -0.141857
 C        -1.439051        -0.628974        -1.218241
 C        -0.565932        -1.254541         0.050060
 C        -0.000623        -2.677104         0.160824
 C         0.333039        -0.047525         0.338492
 O         1.520442         0.074197         0.540879
 O        -0.452770         1.057964         0.237776
 H        -3.150085        -1.910801         1.929777
 H        -4.040374        -0.987883         0.794448
 H        -2.850292        -2.276042         0.291025
 H        -1.471023        -0.208484         1.915955
 H        -2.539242         1.256147        -0.274438
 H        -2.294035        -1.136147        -1.603432
 H        -0.806498        -0.281354        -2.072244
 H         0.636082        -2.841460         1.007508
 H        -0.865009        -3.333124         0.257011
 H         0.509692        -3.187385        -0.810695
