19
Iteration:  2252
 C        -3.162481        -1.724569         0.028558
 C        -2.080166        -0.656357         0.314969
 C        -1.361501         0.415897        -0.675548
 C        -0.586801        -0.701064        -1.151926
 C        -0.620993        -1.199606         0.299463
 C        -0.109066        -2.596068         0.561586
 C         0.168980        -0.006475         0.810524
 O         1.222921         0.244623         1.255564
 O        -0.595426         1.106458         0.400208
 H        -3.087344        -2.323687        -0.873915
 H        -3.126231        -2.450125         0.822564
 H        -4.171578        -1.273103         0.063752
 H        -2.321791        -0.097596         1.255570
 H        -2.065827         1.076403        -1.322710
 H        -1.119193        -1.373494        -1.826963
 H         0.356771        -0.415285        -1.716042
 H        -0.436325        -3.406459        -0.063776
 H         1.031176        -2.402126         0.421409
 H        -0.390666        -2.985109         1.545825
