19
Iteration:  1611charge 0 multiplicity 1
 C        -3.109865        -1.618795         0.189453
 C        -1.923656        -0.800693         0.679096
 C        -1.678797         0.382503        -0.367220
 C        -0.907389        -0.642262        -1.326693
 C        -0.447161        -1.168223         0.080037
 C        -0.115594        -2.577821         0.395611
 C         0.304669         0.006996         0.670301
 O         1.337477         0.174894         1.281428
 O        -0.538820         1.099907         0.226535
 H        -3.374171        -1.793024        -0.895859
 H        -3.010645        -2.554390         0.775491
 H        -3.928113        -0.988489         0.553498
 H        -2.060685        -0.369952         1.681359
 H        -2.395940         1.133231        -0.511920
 H        -1.468920        -1.425960        -1.938096
 H        -0.207792        -0.103103        -1.960780
 H         0.439052        -3.003548        -0.382348
 H         0.394895        -2.693327         1.376531
 H        -0.936974        -3.236395         0.369701
