19
Iteration:  3043
 C        -3.182633        -1.668959         0.164541
 C        -2.010265        -0.766209         0.501334
 C        -1.576662         0.380338        -0.483430
 C        -0.736874        -0.646457        -1.284915
 C        -0.510982        -1.159268         0.173832
 C         0.090706        -2.537825         0.238349
 C         0.204275         0.013839         0.798299
 O         1.161527         0.224800         1.472495
 O        -0.545939         1.058977         0.266828
 H        -2.984136        -2.441521        -0.624727
 H        -3.451359        -2.159131         1.110418
 H        -4.076250        -1.126270        -0.139495
 H        -2.055125        -0.339000         1.466533
 H        -2.428686         0.964583        -0.751875
 H        -1.257327        -1.239285        -1.979586
 H         0.234797        -0.361518        -1.721715
 H        -0.435452        -3.181098        -0.515991
 H         1.136946        -2.510083        -0.029264
 H        -0.178044        -3.186309         1.113880
