19
Iteration:  3924
 C        -3.044245        -1.793677        -0.068118
 C        -1.981326        -0.856818         0.609879
 C        -1.733379         0.478942        -0.088081
 C        -0.965137        -0.399039        -1.258202
 C        -0.531449        -1.194062         0.150122
 C         0.153143        -2.521158         0.181871
 C         0.242068        -0.009334         0.648817
 O         1.453441         0.096207         0.934256
 O        -0.733097         1.075507         0.770732
 H        -2.975602        -2.883867         0.163905
 H        -3.996527        -1.451449         0.293493
 H        -2.972480        -1.577444        -1.146893
 H        -2.138103        -0.809590         1.679983
 H        -2.573434         1.159793        -0.167250
 H        -1.569196        -0.844957        -2.133633
 H        -0.099712         0.212184        -1.637083
 H         1.038759        -2.681605        -0.295297
 H         0.272599        -2.804624         1.226469
 H        -0.500644        -3.184490        -0.324100
