19
Iteration:  1631charge 0 multiplicity 1
 C        -3.178688        -1.564731         0.255878
 C        -1.985008        -0.697995         0.645138
 C        -1.575450         0.431945        -0.420083
 C        -0.942603        -0.662223        -1.230371
 C        -0.564739        -1.278721         0.188949
 C         0.081428        -2.646223         0.293707
 C         0.247020         0.042463         0.615506
 O         1.219898         0.198269         1.325124
 O        -0.449274         1.058384         0.193955
 H        -3.569007        -1.280718        -0.835443
 H        -2.882091        -2.619677         0.293146
 H        -4.090541        -1.366976         0.888725
 H        -1.922781        -0.434966         1.700921
 H        -2.249299         1.115635        -0.886416
 H        -1.518105        -1.366689        -1.830254
 H        -0.131825        -0.164873        -1.805384
 H         0.378674        -3.061489        -0.677289
 H         0.915164        -2.610543         0.982652
 H        -0.554902        -3.466709         0.725171
