19
Iteration:  1367
 C        -3.216362        -1.548138         0.398955
 C        -1.952299        -0.730547         0.741775
 C        -1.676904         0.397783        -0.285897
 C        -1.106472        -0.704883        -1.225555
 C        -0.559788        -1.239261         0.159630
 C         0.088224        -2.628324         0.254401
 C         0.283348         0.037410         0.575295
 O         1.393928         0.180857         1.038715
 O        -0.419441         1.096011         0.236185
 H        -3.900830        -1.154805         1.176975
 H        -3.602986        -1.428894        -0.625337
 H        -3.133988        -2.633062         0.603974
 H        -1.952187        -0.447946         1.792565
 H        -2.297315         1.284212        -0.566735
 H        -1.898576        -1.305368        -1.730508
 H        -0.247294        -0.431639        -1.907285
 H         1.216836        -2.598804         0.208198
 H        -0.241908        -3.332734         1.033517
 H        -0.154551        -3.046562        -0.769500
