19
Iteration:  1239
 C        -3.187339        -1.584177         0.695590
 C        -1.937049        -0.692440         0.772723
 C        -1.714495         0.424442        -0.274204
 C        -1.079484        -0.653594        -1.235077
 C        -0.542685        -1.202997         0.056994
 C         0.081701        -2.613375         0.143877
 C         0.320207         0.010173         0.486400
 O         1.424198         0.044416         0.992933
 O        -0.495062         1.104783         0.207379
 H        -3.592564        -1.678507        -0.378752
 H        -3.160942        -2.583056         1.147141
 H        -3.888866        -0.903181         1.261340
 H        -1.874575        -0.275180         1.857195
 H        -2.453631         1.248305        -0.406535
 H        -1.812970        -1.122475        -1.878698
 H        -0.427403        -0.095613        -1.968405
 H        -0.071657        -3.081488        -0.838096
 H         1.211334        -2.585759         0.340284
 H        -0.388152        -3.231274         0.934267
