19
Iteration:  3841
 C        -3.066781        -1.735244         0.331776
 C        -1.848031        -0.888028         0.602669
 C        -1.709971         0.474648        -0.269188
 C        -0.991879        -0.439070        -1.310572
 C        -0.411936        -1.169943        -0.008920
 C         0.127393        -2.591457        -0.251273
 C         0.293392         0.013331         0.716855
 O         1.177575         0.151196         1.512534
 O        -0.641922         1.070085         0.508864
 H        -2.952885        -2.639296        -0.271333
 H        -3.691700        -2.022823         1.174880
 H        -3.766327        -1.150587        -0.316492
 H        -1.891822        -0.676771         1.709011
 H        -2.477882         1.256374        -0.467792
 H        -1.657846        -1.116810        -1.793961
 H        -0.221760        -0.103311        -2.049307
 H         1.208939        -2.254146        -0.620004
 H         0.285199        -3.230392         0.660120
 H        -0.425543        -3.231115        -1.039348
