19
Iteration:  1365charge 0 multiplicity 1
 C        -3.225294        -1.552440         0.416803
 C        -1.945864        -0.740780         0.737623
 C        -1.685537         0.416151        -0.290864
 C        -1.075159        -0.704567        -1.212653
 C        -0.580759        -1.244330         0.152375
 C         0.098531        -2.616761         0.258635
 C         0.281857         0.040489         0.580313
 O         1.400533         0.175586         1.026134
 O        -0.417673         1.091673         0.245038
 H        -3.948668        -1.083250         1.109320
 H        -3.629040        -1.429551        -0.664107
 H        -3.108435        -2.634916         0.631591
 H        -2.030532        -0.456066         1.784131
 H        -2.333593         1.243973        -0.603504
 H        -1.871650        -1.348843        -1.711402
 H        -0.310456        -0.476589        -1.943246
 H         1.217435        -2.577944         0.241876
 H        -0.298231        -3.342100         0.901860
 H        -0.128187        -3.001295        -0.753049
