19
Iteration:   364charge 0 multiplicity 1
 C        -3.014693        -1.596198         1.274528
 C        -1.801486        -0.741373         1.112090
 C        -1.766398         0.479563        -0.043409
 C        -1.442231        -0.563337        -1.174297
 C        -0.651679        -1.211194         0.083170
 C        -0.118069        -2.611275         0.162982
 C         0.413970        -0.062304         0.195460
 O         1.617705         0.021646         0.234904
 O        -0.412702         1.146706         0.036219
 H        -3.875967        -0.988264         1.612670
 H        -3.253017        -2.249920         0.433282
 H        -2.795044        -2.188045         2.174191
 H        -1.489922        -0.425818         2.120012
 H        -2.544424         1.209933        -0.174616
 H        -2.356906        -1.074688        -1.436749
 H        -0.831455        -0.072128        -1.908707
 H        -0.782333        -3.192083        -0.387961
 H         0.826200        -2.705871        -0.340997
 H         0.094849        -2.995076         1.238240
