19
Iteration:   258charge 0 multiplicity 1
 C        -2.920979        -1.361215         1.477232
 C        -1.788164        -0.572876         1.070583
 C        -1.783636         0.400204        -0.077018
 C        -1.547372        -0.614963        -1.131711
 C        -0.580025        -1.203624        -0.070658
 C         0.055266        -2.607905        -0.099330
 C         0.332349        -0.152963         0.156303
 O         1.524062        -0.032336         0.252674
 O        -0.450215         1.043440         0.247943
 H        -3.070946        -2.350454         1.065306
 H        -2.800470        -1.636237         2.598542
 H        -3.890183        -0.862768         1.448854
 H        -1.296931        -0.180977         1.957999
 H        -2.548206         1.118925        -0.180787
 H        -2.450090        -1.227199        -1.334206
 H        -1.149000        -0.302785        -2.188595
 H         1.176969        -2.738932         0.047469
 H        -0.436090        -3.199563         0.709481
 H        -0.225067        -3.103040        -1.039973
