19
Iteration:  1993charge 0 multiplicity 1
 C        -3.218607        -1.456693        -0.069997
 C        -2.017697        -0.849349         0.514968
 C        -1.519806         0.263621        -0.445027
 C        -0.655679        -0.719630        -1.258886
 C        -0.548369        -1.273530         0.251147
 C         0.016041        -2.651704         0.528297
 C         0.203834         0.048540         0.736389
 O         1.128007         0.331154         1.428759
 O        -0.501684         1.122259         0.191378
 H        -3.098703        -1.817480        -1.080358
 H        -3.519291        -2.307762         0.556950
 H        -4.029915        -0.795666        -0.114012
 H        -2.174028        -0.577317         1.579179
 H        -2.310003         0.939845        -0.934177
 H        -1.031902        -1.302717        -2.074910
 H         0.331937        -0.253307        -1.520844
 H        -0.122222        -3.263269        -0.371499
 H         1.142726        -2.701918         0.778023
 H        -0.640940        -3.163639         1.227637
