19
Iteration:  3469
 C        -3.020366        -1.766011        -0.046092
 C        -1.974703        -0.856038         0.601211
 C        -1.686577         0.462960        -0.243643
 C        -0.929907        -0.495312        -1.293004
 C        -0.528110        -1.172941         0.119401
 C         0.037959        -2.549279         0.327950
 C         0.218766         0.060700         0.741333
 O         1.360494         0.124303         1.094973
 O        -0.585466         1.087862         0.564015
 H        -2.603261        -2.772308        -0.413415
 H        -3.667905        -2.023368         0.806811
 H        -3.838691        -1.318760        -0.724651
 H        -2.024477        -0.672250         1.735075
 H        -2.450021         1.253860        -0.279106
 H        -1.607373        -1.069678        -2.086845
 H        -0.135295        -0.099612        -1.943440
 H         1.040595        -2.543626        -0.054774
 H        -0.164975        -2.912596         1.287709
 H        -0.661507        -3.102244        -0.305437
