19
Iteration:  3566charge 0 multiplicity 1
 C        -3.157631        -1.737473         0.381207
 C        -1.898232        -0.843761         0.596287
 C        -1.639017         0.459428        -0.366691
 C        -0.844019        -0.407327        -1.265950
 C        -0.427191        -1.174139        -0.015863
 C         0.179077        -2.621291        -0.197534
 C         0.218900        -0.009793         0.764569
 O         1.097670         0.163437         1.580996
 O        -0.598285         1.054964         0.357966
 H        -3.666337        -2.053974         1.352345
 H        -3.901409        -1.169419        -0.181806
 H        -2.962146        -2.672082        -0.242896
 H        -1.836027        -0.478475         1.688835
 H        -2.300930         1.155890        -0.873174
 H        -1.688032        -0.986195        -1.865647
 H        -0.048918        -0.135952        -1.977097
 H         0.801356        -2.542574        -1.143083
 H         0.771028        -2.871321         0.726252
 H        -0.657591        -3.385818        -0.198456
