19
Iteration:    80charge 0 multiplicity 1
 C        -2.880079        -1.487355         1.394411
 C        -1.566820        -0.697181         1.169435
 C        -1.726038         0.526167         0.188985
 C        -1.747301        -0.603745        -0.900797
 C        -0.664380        -1.228185        -0.072450
 C        -0.102677        -2.639294        -0.120753
 C         0.405972        -0.074044        -0.027947
 O         1.577584         0.039144         0.179612
 O        -0.433595         1.067542         0.045124
 H        -2.799739        -1.626128         2.494451
 H        -3.734296        -0.919405         1.069162
 H        -2.873076        -2.480069         0.888164
 H        -1.084893        -0.457461         2.102352
 H        -2.534826         1.287101         0.312225
 H        -2.720988        -1.199181        -0.897358
 H        -1.400691        -0.436659        -1.958211
 H         0.311226        -3.014435        -0.984892
 H         0.613021        -2.711602         0.701406
 H        -0.998092        -3.366462         0.095786
