19
Iteration:    12
 C        -2.776651        -1.597406         1.607455
 C        -1.660770        -0.608950         1.107537
 C        -1.806225         0.582377         0.050792
 C        -1.730269        -0.590941        -1.111110
 C        -0.680706        -1.197820        -0.015384
 C        -0.077963        -2.654900        -0.072973
 C         0.327587        -0.072213         0.101856
 O         1.569317        -0.048405        -0.022646
 O        -0.366257         1.085801         0.233814
 H        -3.162420        -1.010329         2.440466
 H        -3.555469        -1.696136         0.875389
 H        -2.405735        -2.551959         2.009442
 H        -1.028984        -0.335926         1.950242
 H        -2.422335         1.477536         0.094117
 H        -2.717351        -1.053894        -1.145900
 H        -1.374647        -0.351651        -2.109122
 H         0.820052        -2.950839         0.487183
 H        -0.916414        -3.316418         0.158325
 H         0.076991        -2.794852        -1.166015
