19
Iteration:  2096
 C        -3.138439        -1.643880        -0.036820
 C        -1.895260        -0.776939         0.438607
 C        -1.506496         0.402695        -0.524441
 C        -0.735871        -0.741038        -1.315249
 C        -0.494732        -1.206005         0.106677
 C        -0.059507        -2.583610         0.542613
 C         0.214860         0.111739         0.762298
 O         1.053178         0.181382         1.620173
 O        -0.494698         1.129884         0.200610
 H        -3.091503        -1.976279        -1.075892
 H        -3.246711        -2.455941         0.629473
 H        -4.008477        -0.991688         0.032915
 H        -2.150077        -0.551840         1.489306
 H        -2.014172         1.093795        -1.110883
 H        -1.426261        -1.363545        -2.000350
 H         0.065986        -0.271794        -1.900271
 H        -1.063470        -3.125870         0.763204
 H         0.534439        -3.196451        -0.113077
 H         0.537218        -2.550812         1.521336
