19
Iteration:   758charge 0 multiplicity 1
 C        -3.129269        -1.413254         1.126371
 C        -1.860511        -0.576582         0.913679
 C        -1.763244         0.454954        -0.233518
 C        -1.298547        -0.679658        -1.227629
 C        -0.581405        -1.263898         0.100556
 C         0.130563        -2.631035         0.033862
 C         0.334984        -0.060408         0.316909
 O         1.496106        -0.030570         0.669379
 O        -0.518056         1.068089         0.164429
 H        -2.787552        -2.376913         1.530686
 H        -3.871579        -0.948419         1.850067
 H        -3.681777        -1.748151         0.222375
 H        -1.669264        -0.186042         1.930070
 H        -2.431764         1.313740        -0.534128
 H        -2.139929        -1.235803        -1.642695
 H        -0.592343        -0.241490        -1.980147
 H         1.127896        -2.226816        -0.158419
 H         0.317551        -3.258858         0.953957
 H        -0.216768        -3.319883        -0.859259
