19
Iteration:  3849
 C        -3.037275        -1.745335         0.237530
 C        -1.819026        -0.871806         0.637459
 C        -1.710341         0.461549        -0.236407
 C        -0.977356        -0.434341        -1.359112
 C        -0.509144        -1.167407        -0.037419
 C         0.162291        -2.565148        -0.174404
 C         0.181529        -0.005119         0.788212
 O         1.236764         0.117846         1.433658
 O        -0.628218         1.122780         0.549675
 H        -2.922102        -2.804682        -0.184012
 H        -3.511416        -1.911396         1.227065
 H        -3.837776        -1.170649        -0.339533
 H        -1.836945        -0.691011         1.711149
 H        -2.522649         1.168135        -0.392526
 H        -1.688508        -1.047294        -1.998309
 H        -0.311779        -0.259142        -2.164706
 H         1.162034        -2.477872        -0.566761
 H         0.212870        -3.174741         0.734375
 H        -0.282830        -3.204499        -0.967159
