19
Iteration:  3860
 C        -3.040922        -1.757385         0.209035
 C        -1.912578        -0.855509         0.582181
 C        -1.674626         0.423749        -0.184645
 C        -0.990452        -0.424609        -1.338801
 C        -0.506560        -1.184367        -0.068181
 C         0.202832        -2.505707        -0.075376
 C         0.183233         0.028107         0.804388
 O         1.248567         0.039118         1.308320
 O        -0.619272         1.129591         0.573329
 H        -2.603560        -2.707578        -0.230177
 H        -3.612563        -2.018934         1.128380
 H        -3.786914        -1.316914        -0.537370
 H        -1.788572        -0.736953         1.653153
 H        -2.518073         1.090351        -0.365733
 H        -1.832963        -0.979363        -1.809698
 H        -0.290315         0.155953        -1.869749
 H         1.241541        -2.466775        -0.329244
 H         0.100357        -2.954140         0.914007
 H        -0.422868        -3.115481        -0.746717
