19
Iteration:   922charge 0 multiplicity 1
 C        -3.191632        -1.520422         0.768645
 C        -1.728332        -0.754693         0.865543
 C        -1.762513         0.480676        -0.118617
 C        -1.404061        -0.687860        -1.154513
 C        -0.488450        -1.193983        -0.013626
 C         0.070564        -2.547791         0.173602
 C         0.361963         0.004558         0.338905
 O         1.505193        -0.028043         0.727776
 O        -0.468931         1.154820         0.254276
 H        -3.510464        -1.846239         1.786825
 H        -3.899116        -0.826386         0.303879
 H        -3.238578        -2.483033         0.189938
 H        -1.293732        -0.613075         1.859728
 H        -2.584242         1.136405        -0.315028
 H        -2.312916        -1.308594        -1.284721
 H        -1.110900        -0.368414        -2.139327
 H         0.524019        -2.701906         1.172048
 H        -0.646355        -3.370669        -0.015693
 H         0.905215        -2.672081        -0.569070
