19
Iteration:  2506
 C        -3.121283        -1.610062        -0.098140
 C        -2.001925        -0.721908         0.405348
 C        -1.523695         0.397366        -0.479274
 C        -0.534967        -0.699163        -1.244754
 C        -0.497414        -1.252093         0.228223
 C        -0.125696        -2.663400         0.666718
 C         0.169668         0.024675         0.795585
 O         1.217306         0.269434         1.219793
 O        -0.647697         1.123881         0.336653
 H        -3.129799        -1.857764        -1.140460
 H        -3.156771        -2.517930         0.478157
 H        -4.043503        -1.133659         0.047773
 H        -2.205265        -0.378340         1.439795
 H        -2.305964         1.098457        -0.804657
 H        -1.111405        -1.393982        -1.977144
 H         0.414892        -0.385391        -1.651752
 H        -0.914964        -3.438846         0.311695
 H         0.910767        -2.958289         0.357031
 H        -0.260922        -2.683860         1.796201
