19
Iteration:  2711charge 0 multiplicity 1
 C        -3.026184        -1.722523        -0.033196
 C        -2.066461        -0.703809         0.398338
 C        -1.668405         0.414040        -0.620928
 C        -0.627052        -0.571266        -1.312382
 C        -0.551969        -1.189130         0.151912
 C        -0.029295        -2.503925         0.807200
 C         0.195230         0.002784         0.712567
 O         1.247745         0.036630         1.296819
 O        -0.623286         1.115618         0.362314
 H        -2.886193        -2.029885        -1.120668
 H        -2.836901        -2.678963         0.552949
 H        -4.115700        -1.409239         0.184790
 H        -2.324903        -0.274339         1.341948
 H        -2.382686         1.096014        -1.055322
 H        -1.109279        -1.153883        -2.165883
 H         0.162885         0.049727        -1.628167
 H        -0.575368        -3.398818         0.710147
 H         1.021782        -2.776456         0.580888
 H         0.027000        -2.235263         1.854013
