19
Iteration:   969
 C        -3.017555        -1.705812         0.979546
 C        -1.947705        -0.689004         0.860958
 C        -1.737552         0.493166        -0.279833
 C        -1.154170        -0.505210        -1.214872
 C        -0.591891        -1.150850         0.090068
 C        -0.056804        -2.660764        -0.013133
 C         0.316243         0.038691         0.417227
 O         1.462931        -0.039889         0.791666
 O        -0.457731         1.151075         0.211407
 H        -3.118485        -1.829075         2.071365
 H        -3.838961        -1.258360         0.472478
 H        -2.756568        -2.726283         0.675528
 H        -1.693541        -0.085573         1.712159
 H        -2.557481         1.142261        -0.596841
 H        -1.908522        -1.223049        -1.633220
 H        -0.454584        -0.169049        -2.014483
 H         1.048839        -2.738919         0.019883
 H        -0.321698        -3.212017         0.985604
 H        -0.513274        -3.179889        -0.799513
