19
Iteration:  3955
 C        -3.186143        -1.825648         0.067900
 C        -1.974021        -0.947471         0.585473
 C        -1.695202         0.458796        -0.140209
 C        -0.882617        -0.362415        -1.125349
 C        -0.452359        -1.197131         0.141036
 C         0.076061        -2.573518        -0.031372
 C         0.295733        -0.041382         0.736191
 O         1.371933         0.286303         1.030210
 O        -0.651296         1.046570         0.632901
 H        -3.515903        -2.623664         0.720747
 H        -3.896701        -1.036902        -0.026595
 H        -2.995489        -2.181305        -0.945118
 H        -1.998730        -0.743130         1.660629
 H        -2.487773         1.150017        -0.362177
 H        -1.504001        -0.914867        -1.930900
 H        -0.067452         0.251820        -1.537773
 H         1.054934        -2.843355        -0.538317
 H         0.153673        -2.997132         1.037217
 H        -0.759366        -3.178461        -0.437150
