19
Iteration:   989
 C        -3.058006        -1.627700         0.970915
 C        -1.793369        -0.715260         0.779109
 C        -1.702407         0.476419        -0.267717
 C        -1.227879        -0.617675        -1.335097
 C        -0.528233        -1.158213        -0.040851
 C        -0.182685        -2.553602         0.078491
 C         0.345074        -0.043870         0.445322
 O         1.478032         0.059334         0.841642
 O        -0.509769         1.099522         0.311977
 H        -3.066993        -1.971650         2.064125
 H        -3.977707        -1.324639         0.494650
 H        -2.672268        -2.582040         0.479212
 H        -1.404415        -0.462789         1.796373
 H        -2.333121         1.324746        -0.364634
 H        -1.973725        -1.421167        -1.657394
 H        -0.590403        -0.325203        -2.162306
 H         0.764502        -2.592697        -0.495821
 H         0.231592        -2.808446         1.170922
 H        -1.005044        -3.156406        -0.321962
