19
Iteration:  3769
 C        -2.986573        -1.813181         0.321137
 C        -1.953274        -0.720357         0.583209
 C        -1.746749         0.537007        -0.300394
 C        -1.004122        -0.414620        -1.412825
 C        -0.462939        -1.103034        -0.099092
 C         0.288796        -2.455570         0.046389
 C         0.214678        -0.029900         0.690394
 O         1.177244        -0.133250         1.418035
 O        -0.631261         1.066806         0.517806
 H        -3.296736        -1.700789        -0.740706
 H        -2.960152        -2.904168         0.645357
 H        -4.023701        -1.555500         0.622582
 H        -1.880432        -0.493055         1.639790
 H        -2.390367         1.412307        -0.498546
 H        -1.737042        -1.228151        -1.770858
 H        -0.338445         0.220455        -2.100351
 H         0.978479        -2.580632        -0.695882
 H         0.807586        -2.534150         0.979694
 H        -0.409913        -3.243139         0.054579
