19
Iteration:  2329charge 0 multiplicity 1
 C        -3.129375        -1.651373        -0.043015
 C        -2.001914        -0.703646         0.433001
 C        -1.548819         0.451076        -0.578556
 C        -0.874420        -0.678297        -1.298083
 C        -0.540155        -1.234816         0.188213
 C         0.131594        -2.626329         0.678201
 C         0.249883         0.001352         0.654668
 O         0.994153         0.115823         1.591896
 O        -0.419709         1.174662         0.179919
 H        -3.082087        -1.900130        -1.066034
 H        -3.328677        -2.414586         0.598072
 H        -4.055860        -1.106594         0.070237
 H        -2.062693        -0.435260         1.504322
 H        -2.081446         1.184798        -1.285739
 H        -1.479738        -1.239376        -1.954344
 H         0.028781        -0.406858        -1.963070
 H        -0.600198        -3.390700         0.792472
 H         1.051477        -2.902972        -0.008620
 H         0.658959        -2.389371         1.601940
