19
Iteration:  3603charge 0 multiplicity 1
 C        -3.002742        -1.817753         0.250615
 C        -1.967079        -0.763912         0.645205
 C        -1.680446         0.468293        -0.333940
 C        -1.035207        -0.392270        -1.277539
 C        -0.413618        -1.120807         0.001578
 C         0.146029        -2.503327         0.001726
 C         0.269984         0.006945         0.682042
 O         1.163067        -0.035810         1.503317
 O        -0.591881         1.112153         0.354020
 H        -3.722407        -1.976900         1.061484
 H        -3.462723        -1.442074        -0.751399
 H        -2.592230        -2.819757        -0.027287
 H        -1.930037        -0.558444         1.709887
 H        -2.438426         1.218814        -0.632544
 H        -1.729590        -1.076028        -1.729857
 H        -0.250776        -0.035183        -2.068398
 H         1.141650        -2.650154        -0.400486
 H         0.194938        -2.844357         1.021058
 H        -0.469199        -3.221440        -0.479258
