19
Iteration:    72charge 0 multiplicity 1
 C        -2.815718        -1.501088         1.426063
 C        -1.565370        -0.704275         1.155914
 C        -1.738746         0.453631         0.197592
 C        -1.684611        -0.524194        -0.968514
 C        -0.667436        -1.230123        -0.033645
 C        -0.139877        -2.685956        -0.077861
 C         0.366033        -0.023409         0.027394
 O         1.577670        -0.012202         0.159153
 O        -0.454250         1.121425        -0.002353
 H        -2.926029        -1.622524         2.549179
 H        -3.838103        -1.024033         1.239206
 H        -2.851994        -2.560799         1.069474
 H        -1.039714        -0.561179         2.124726
 H        -2.526064         1.207045         0.199538
 H        -2.780190        -0.888329        -1.056547
 H        -1.455247        -0.252585        -2.063708
 H         0.565743        -2.796413        -0.979351
 H         0.492486        -2.905364         0.812019
 H        -0.960942        -3.420052        -0.137719
