19
Iteration:  2673charge 0 multiplicity 1
 C        -3.085904        -1.748474         0.044252
 C        -1.991074        -0.744692         0.447621
 C        -1.568447         0.363629        -0.586573
 C        -0.729099        -0.751557        -1.228169
 C        -0.517769        -1.216612         0.132515
 C        -0.059010        -2.567121         0.482181
 C         0.186357         0.121022         0.734168
 O         1.073058         0.231981         1.516032
 O        -0.404504         1.188559         0.236629
 H        -3.453721        -1.699025        -0.955534
 H        -2.960736        -2.757843         0.372683
 H        -3.913025        -1.353564         0.578024
 H        -2.107752        -0.596807         1.577195
 H        -2.224706         1.181056        -1.014101
 H        -1.373294        -1.351376        -1.821414
 H         0.150115        -0.600373        -1.935078
 H        -0.690667        -3.404150        -0.021516
 H         1.054054        -2.634703         0.327921
 H        -0.309086        -2.635937         1.585585
