19
Iteration:   882
 C        -3.177242        -1.552870         0.842665
 C        -1.823758        -0.710492         0.897354
 C        -1.715780         0.430707        -0.123088
 C        -1.244934        -0.536345        -1.132517
 C        -0.680631        -1.225490         0.084094
 C         0.052896        -2.566273         0.202149
 C         0.331372        -0.103772         0.428983
 O         1.512119         0.105814         0.538399
 O        -0.438000         1.018544         0.185717
 H        -3.344578        -2.130390         1.802899
 H        -3.988498        -0.854285         0.700581
 H        -3.294800        -2.303748         0.042539
 H        -1.724917        -0.397317         1.939913
 H        -2.437328         1.221706        -0.270769
 H        -1.986448        -1.221860        -1.636850
 H        -0.431491        -0.240178        -1.817045
 H        -0.304065        -3.439390         0.775050
 H         0.067778        -2.707048        -0.938439
 H         1.054060        -2.406615         0.437107
