19
Iteration:  1415
 C        -3.103348        -1.714328         0.557398
 C        -1.864737        -0.707019         0.634093
 C        -1.578820         0.468726        -0.371510
 C        -1.048239        -0.586429        -1.380501
 C        -0.581625        -1.204343         0.053762
 C        -0.033634        -2.533927         0.363049
 C         0.287900         0.022451         0.518497
 O         1.276396        -0.013207         1.195956
 O        -0.475053         1.170816         0.211824
 H        -3.206590        -2.214320         1.523880
 H        -3.920320        -1.218242         0.106447
 H        -2.888602        -2.478208        -0.190389
 H        -1.924976        -0.294292         1.682555
 H        -2.389260         1.124650        -0.623321
 H        -1.854300        -1.251785        -1.707062
 H        -0.410060        -0.167622        -2.192308
 H         0.225564        -3.063580        -0.556932
 H         0.964984        -2.355582         0.991857
 H        -0.655581        -3.203148         0.977206
