19
Iteration:  4275
 C        -3.023047        -1.809377         0.383294
 C        -1.889067        -0.762523         0.597837
 C        -1.696279         0.445304        -0.257990
 C        -1.047208        -0.380430        -1.385747
 C        -0.467424        -1.096683        -0.099107
 C         0.239690        -2.410093        -0.049663
 C         0.263810         0.011868         0.702091
 O         1.152718        -0.128981         1.492225
 O        -0.656757         1.064365         0.409852
 H        -2.660065        -2.765553         0.844013
 H        -3.865193        -1.475390         0.982347
 H        -3.241117        -2.018914        -0.695811
 H        -1.811985        -0.486608         1.650274
 H        -2.452796         1.166307        -0.591035
 H        -1.915084        -0.784626        -1.935778
 H        -0.206190         0.036693        -1.974188
 H         0.921379        -2.477515        -0.984834
 H         0.948770        -2.544065         0.847955
 H        -0.539724        -3.258991        -0.208896
