19
Iteration:  3754
 C        -3.070075        -1.801009         0.190021
 C        -1.929138        -0.865518         0.562275
 C        -1.718418         0.469439        -0.293194
 C        -1.063284        -0.295398        -1.321416
 C        -0.503301        -1.136836        -0.011199
 C         0.213924        -2.439907         0.162522
 C         0.243265        -0.018554         0.667780
 O         1.260237        -0.109862         1.360343
 O        -0.606358         1.115376         0.475338
 H        -3.439220        -1.697501        -0.806808
 H        -2.561708        -2.736662         0.287360
 H        -3.758866        -1.745531         1.010690
 H        -1.925547        -0.650188         1.668846
 H        -2.527140         1.185035        -0.507548
 H        -1.670703        -0.717488        -2.046448
 H        -0.313981         0.097103        -2.003418
 H         0.964341        -2.633262        -0.688936
 H         0.751160        -2.406413         1.119886
 H        -0.374456        -3.393994         0.166997
