19
Iteration:  4614
 C        -3.127407        -1.838334         0.072860
 C        -1.976098        -0.895856         0.528558
 C        -1.760253         0.393145        -0.181532
 C        -0.841376        -0.318976        -1.261804
 C        -0.446837        -1.179538         0.173235
 C         0.089128        -2.595320        -0.034341
 C         0.215071        -0.012762         0.807126
 O         1.376988         0.233167         1.141934
 O        -0.632296         1.061639         0.609987
 H        -3.398460        -2.606859         0.878576
 H        -3.992406        -1.040064         0.197507
 H        -3.210813        -2.152011        -0.987472
 H        -2.320724        -0.815874         1.676812
 H        -2.543773         1.114253        -0.426613
 H        -1.365985        -0.903089        -2.024151
 H        -0.019096         0.244236        -1.677090
 H        -0.201373        -3.118364        -0.930630
 H         1.139273        -2.593873         0.159947
 H        -0.137060        -3.131186         0.907892
