19
Iteration:  2291
 C        -3.253124        -1.535279        -0.123351
 C        -1.972915        -0.779991         0.463153
 C        -1.609397         0.269019        -0.574252
 C        -0.687005        -0.653649        -1.253018
 C        -0.489839        -1.227513         0.268464
 C         0.022390        -2.472559         0.659422
 C         0.239650        -0.001335         0.740995
 O         1.220485         0.154466         1.406115
 O        -0.588474         1.079518         0.250135
 H        -3.097095        -1.807511        -1.207848
 H        -3.458165        -2.544783         0.407296
 H        -4.041406        -0.769613         0.020965
 H        -2.309315        -0.317687         1.392085
 H        -2.099494         0.988683        -1.151523
 H        -1.064447        -1.536307        -1.861597
 H         0.167490        -0.115484        -1.575558
 H        -0.663117        -3.394029         0.520634
 H         0.850851        -2.682209         0.066356
 H         0.290703        -2.410522         1.761339
