19
Iteration:  4799
 C        -3.000479        -1.722409         0.251683
 C        -1.839174        -0.915662         0.567222
 C        -1.732830         0.508346        -0.270723
 C        -1.075912        -0.372837        -1.332549
 C        -0.472600        -1.168786        -0.132247
 C         0.241258        -2.489353        -0.013250
 C         0.201441        -0.051668         0.753473
 O         1.165055        -0.044824         1.481907
 O        -0.612923         1.142632         0.489576
 H        -2.878874        -2.519613         0.976164
 H        -3.980970        -1.280260         0.398733
 H        -3.034288        -2.202738        -0.671822
 H        -1.774870        -0.662116         1.577186
 H        -2.612437         1.121599        -0.549888
 H        -1.855622        -0.950135        -1.854223
 H        -0.363067         0.186734        -1.965137
 H        -0.140984        -3.085549        -0.906169
 H         1.275059        -2.237560        -0.323315
 H         0.352724        -3.049664         0.950449
