19
Iteration:  1207
 C        -3.246039        -1.457481         0.861986
 C        -1.896079        -0.734730         0.666235
 C        -1.700701         0.374583        -0.303289
 C        -1.074418        -0.631647        -1.376289
 C        -0.531927        -1.241861        -0.073337
 C         0.183879        -2.559915         0.142656
 C         0.270180        -0.026786         0.504201
 O         1.388173         0.050002         0.964595
 O        -0.523249         1.025006         0.375741
 H        -3.688323        -2.151209         0.032291
 H        -3.433472        -1.835926         1.893914
 H        -3.891245        -0.559930         0.602545
 H        -1.706393        -0.397111         1.754663
 H        -2.317932         1.279684        -0.509776
 H        -1.921196        -1.123377        -1.798189
 H        -0.355276        -0.138958        -2.095874
 H         0.935700        -2.659241        -0.623497
 H         0.707428        -2.563499         1.159767
 H        -0.532557        -3.387725         0.102146
