19
Iteration:   764
 C        -3.100097        -1.416648         1.084745
 C        -1.812534        -0.600485         0.932922
 C        -1.741723         0.449343        -0.271728
 C        -1.341744        -0.674370        -1.152156
 C        -0.633636        -1.282347         0.094763
 C         0.109493        -2.584132         0.025360
 C         0.337097        -0.060561         0.286293
 O         1.468970        -0.011305         0.690121
 O        -0.504381         1.038418         0.182932
 H        -2.667293        -2.371379         1.419068
 H        -3.787157        -0.994871         1.789554
 H        -3.609738        -1.563267         0.130831
 H        -1.460014        -0.165570         1.883756
 H        -2.364945         1.269632        -0.589570
 H        -2.123151        -1.276304        -1.633321
 H        -0.613294        -0.443338        -1.926018
 H         1.124474        -2.295722        -0.331086
 H         0.221664        -2.956988         1.018009
 H        -0.265146        -3.273745        -0.713798
