19
Iteration:   638
 C        -3.010214        -1.567790         1.044004
 C        -1.860747        -0.618956         0.842174
 C        -1.759471         0.551449        -0.159494
 C        -1.359903        -0.567640        -1.182560
 C        -0.587517        -1.216342         0.099074
 C         0.018803        -2.653662         0.231346
 C         0.372644        -0.053741         0.273445
 O         1.555734        -0.077026         0.418633
 O        -0.530673         1.119335         0.263839
 H        -2.869447        -2.042189         2.001221
 H        -4.043265        -1.099391         1.104997
 H        -2.874116        -2.378386         0.311951
 H        -1.577932        -0.321169         1.900781
 H        -2.652308         1.227257        -0.223663
 H        -2.279049        -1.055443        -1.458912
 H        -0.647852        -0.276310        -2.020335
 H        -0.657840        -3.185125         0.837297
 H         0.071625        -3.100747        -0.766009
 H         1.064546        -2.587920         0.624156
