19
Iteration:  3777
 C        -3.022140        -1.791145         0.332786
 C        -1.980863        -0.706004         0.582901
 C        -1.684661         0.481615        -0.268403
 C        -0.984950        -0.471161        -1.366330
 C        -0.425522        -1.094680        -0.136899
 C         0.259831        -2.441426        -0.023587
 C         0.166199        -0.028739         0.690475
 O         1.113884        -0.098298         1.435928
 O        -0.595411         1.080570         0.531667
 H        -3.041682        -2.016090        -0.721149
 H        -2.801772        -2.705794         0.912800
 H        -3.919559        -1.336173         0.707713
 H        -1.851337        -0.442963         1.659613
 H        -2.425408         1.298787        -0.406069
 H        -1.576940        -1.093322        -1.977294
 H        -0.362657        -0.058640        -2.215990
 H         0.973551        -2.542493        -0.873526
 H         0.797291        -2.525636         0.906112
 H        -0.344313        -3.339501        -0.147581
