19
Iteration:   424charge 0 multiplicity 1
 C        -3.106692        -1.483708         1.179867
 C        -1.796983        -0.664997         1.080140
 C        -1.845338         0.499797        -0.007076
 C        -1.481032        -0.628531        -1.075945
 C        -0.560490        -1.221903         0.037990
 C         0.106384        -2.621979         0.114663
 C         0.375444        -0.051983         0.105084
 O         1.586260        -0.000509         0.367576
 O        -0.428068         1.072884         0.067735
 H        -3.355996        -1.566855         2.258297
 H        -3.917095        -0.901301         0.751505
 H        -3.144248        -2.498944         0.742895
 H        -1.471935        -0.313323         2.085152
 H        -2.659859         1.290601        -0.065371
 H        -2.183781        -1.434810        -1.396798
 H        -1.036238        -0.341838        -2.065372
 H        -0.228993        -3.132701         1.129474
 H        -0.282482        -3.232187        -0.761918
 H         1.159124        -2.609737         0.140143
