19
Iteration:  3476
 C        -3.061356        -1.758654        -0.041286
 C        -1.958399        -0.847674         0.619760
 C        -1.651003         0.439856        -0.198185
 C        -0.963313        -0.441452        -1.352615
 C        -0.527630        -1.145048         0.140837
 C         0.052039        -2.451509         0.318060
 C         0.232527         0.020523         0.716269
 O         1.360247         0.067457         1.146663
 O        -0.605068         1.082020         0.505188
 H        -2.617342        -2.757529        -0.255593
 H        -3.689998        -2.090262         0.814320
 H        -3.628195        -1.498324        -0.947341
 H        -2.176440        -0.729276         1.715322
 H        -2.436721         1.187425        -0.350248
 H        -1.690354        -1.136736        -1.878861
 H        -0.219151        -0.017975        -2.050445
 H         1.077384        -2.647972        -0.090882
 H         0.100397        -2.902081         1.437367
 H        -0.586553        -3.245283        -0.206977
