19
Iteration:  2702
 C        -3.016751        -1.727186        -0.022991
 C        -2.106154        -0.640513         0.383162
 C        -1.595761         0.347077        -0.545911
 C        -0.679777        -0.500780        -1.363023
 C        -0.499948        -1.249481         0.159147
 C        -0.051717        -2.514087         0.771994
 C         0.229520         0.017395         0.758257
 O         1.285955         0.067284         1.394863
 O        -0.676901         1.084954         0.231382
 H        -3.209296        -1.994293        -1.062352
 H        -2.748126        -2.672824         0.594898
 H        -4.021063        -1.493478         0.409575
 H        -2.287289        -0.400307         1.402959
 H        -2.345104         1.085776        -1.024132
 H        -1.217258        -1.014251        -2.250521
 H         0.242974         0.007007        -1.672604
 H        -0.683759        -3.385575         0.543149
 H         0.916382        -2.723236         0.550023
 H        -0.060400        -2.294273         1.843357
