19
Iteration:   481charge 0 multiplicity 1
 C        -2.996438        -1.494759         1.276779
 C        -1.760407        -0.531748         1.013561
 C        -1.769996         0.384548        -0.189406
 C        -1.405215        -0.635564        -1.229657
 C        -0.563030        -1.205119        -0.004328
 C        -0.010487        -2.646055         0.142956
 C         0.358346         0.001116         0.223925
 O         1.577226        -0.018915         0.457982
 O        -0.523776         1.075813         0.147807
 H        -2.717870        -2.538643         1.629690
 H        -3.704051        -1.123603         1.979741
 H        -3.607565        -1.680273         0.370897
 H        -1.576252        -0.000905         1.953254
 H        -2.567372         1.113510        -0.433210
 H        -2.348973        -1.235119        -1.297687
 H        -0.871907        -0.400878        -2.100815
 H         0.932475        -2.899344         0.664167
 H        -0.826098        -3.189719         0.597097
 H        -0.095496        -3.085285        -0.857318
