19
Iteration:   596
 C        -3.194765        -1.441476         1.079067
 C        -1.818837        -0.724565         0.941612
 C        -1.733892         0.401633        -0.081758
 C        -1.370147        -0.632393        -1.159711
 C        -0.583765        -1.220259         0.098992
 C         0.041260        -2.617423         0.127710
 C         0.411818        -0.014660         0.286674
 O         1.605378         0.053746         0.497906
 O        -0.519072         1.052050         0.082286
 H        -2.932787        -2.339433         1.629086
 H        -3.689990        -0.781682         1.843926
 H        -3.894814        -1.686504         0.263245
 H        -1.525674        -0.334379         1.940799
 H        -2.470631         1.223015        -0.291839
 H        -2.068562        -1.423595        -1.454556
 H        -0.737174        -0.068007        -1.952101
 H        -0.674185        -3.374170        -0.264241
 H         0.913869        -2.677507        -0.606540
 H         0.380046        -2.905633         1.104208
