19
Iteration:  2195charge 0 multiplicity 1
 C        -3.046467        -1.670220        -0.043894
 C        -1.941782        -0.700907         0.491396
 C        -1.525452         0.517537        -0.493774
 C        -0.889432        -0.706122        -1.455001
 C        -0.501785        -1.224582         0.124187
 C        -0.023740        -2.546949         0.708325
 C         0.217706        -0.009954         0.699429
 O         1.022052         0.164569         1.549744
 O        -0.428886         1.080086         0.177384
 H        -2.712552        -2.213087        -0.920853
 H        -3.212597        -2.331216         0.721692
 H        -3.933037        -1.102205        -0.241500
 H        -2.188298        -0.565059         1.566056
 H        -2.253202         1.314997        -0.596860
 H        -1.463779        -1.510898        -2.054670
 H         0.013379        -0.314503        -1.944262
 H        -0.182958        -3.351920        -0.103774
 H         1.069564        -2.610473         0.864784
 H        -0.412052        -2.790783         1.752766
