19
Iteration:  2630charge 0 multiplicity 1
 C        -3.237132        -1.477906         0.210883
 C        -1.991433        -0.697634         0.468330
 C        -1.563428         0.297120        -0.592923
 C        -0.717251        -0.755406        -1.277217
 C        -0.488581        -1.269920         0.082464
 C         0.201003        -2.552983         0.343539
 C         0.154941         0.015847         0.772922
 O         0.939605         0.230282         1.666788
 O        -0.419357         1.049558         0.116561
 H        -3.401971        -1.827093        -0.817818
 H        -3.172510        -2.354277         0.851525
 H        -4.179203        -1.012082         0.535878
 H        -2.210737        -0.142843         1.446659
 H        -2.301146         0.938517        -1.171351
 H        -1.073165        -1.442636        -1.995262
 H         0.200204        -0.279715        -1.755999
 H        -0.203063        -3.429802        -0.297721
 H         1.328738        -2.445879         0.194530
 H         0.071705        -2.849978         1.430635
