19
Iteration:   798charge 0 multiplicity 1
 C        -3.081847        -1.548552         0.931319
 C        -1.768013        -0.720713         0.884727
 C        -1.770907         0.448796        -0.118334
 C        -1.487376        -0.562316        -1.182896
 C        -0.555603        -1.196036         0.011235
 C        -0.000518        -2.669815         0.207423
 C         0.440822         0.062802         0.272315
 O         1.547454        -0.011165         0.796101
 O        -0.461185         1.137512        -0.001478
 H        -2.784244        -2.581783         1.132058
 H        -3.678059        -1.341739         1.838824
 H        -3.681798        -1.578872         0.033017
 H        -1.375132        -0.456532         1.875914
 H        -2.605378         1.193744        -0.131488
 H        -2.172675        -1.316717        -1.457444
 H        -0.944731        -0.124574        -2.024282
 H         0.503715        -3.097189        -0.642219
 H         0.623878        -2.831377         1.027058
 H        -0.881458        -3.313468         0.574310
