19
Iteration:  3484charge 0 multiplicity 1
 C        -3.077236        -1.794261         0.016426
 C        -1.985551        -0.825579         0.572777
 C        -1.695666         0.426993        -0.202734
 C        -1.010301        -0.393671        -1.302559
 C        -0.519081        -1.119223         0.125732
 C         0.093606        -2.472653         0.309021
 C         0.283145        -0.030643         0.674614
 O         1.358585         0.013510         1.214019
 O        -0.603969         1.099809         0.452514
 H        -2.583270        -2.684040        -0.221592
 H        -3.966791        -1.958600         0.648386
 H        -3.387759        -1.441197        -0.924670
 H        -2.141211        -0.725277         1.598668
 H        -2.446010         1.131067        -0.564528
 H        -1.642350        -1.056427        -1.690892
 H        -0.282323         0.109604        -1.943758
 H         1.109140        -2.525046        -0.149662
 H         0.342734        -2.501101         1.384963
 H        -0.455665        -3.314209        -0.069342
