19
Iteration:  1155charge 0 multiplicity 1
 C        -3.080840        -1.649155         0.575885
 C        -1.903819        -0.632243         0.862154
 C        -1.729832         0.475400        -0.231609
 C        -1.305265        -0.667715        -1.133779
 C        -0.606884        -1.178073         0.139243
 C        -0.001672        -2.529380         0.106374
 C         0.399678        -0.027075         0.439323
 O         1.496149         0.008752         0.964576
 O        -0.414635         1.116281         0.142973
 H        -2.644750        -2.551680         0.103507
 H        -3.602753        -1.926461         1.535056
 H        -3.956402        -1.421881        -0.051738
 H        -1.848858        -0.314486         1.906458
 H        -2.450248         1.335318        -0.310745
 H        -2.128908        -1.290006        -1.381412
 H        -0.690753        -0.336036        -2.011368
 H         0.876451        -2.551238         0.742444
 H        -0.767006        -3.288542         0.550284
 H         0.354699        -2.815658        -0.866356
