19
Iteration:  4761charge 0 multiplicity 1
 C        -3.099165        -1.824547         0.444933
 C        -1.908206        -0.852471         0.583838
 C        -1.709222         0.420927        -0.382680
 C        -0.919145        -0.357295        -1.370645
 C        -0.487298        -1.181288        -0.053687
 C         0.195654        -2.492587        -0.235753
 C         0.242473        -0.086349         0.777134
 O         1.134892         0.057189         1.618216
 O        -0.583283         1.161401         0.445098
 H        -2.966976        -2.744222         1.061714
 H        -4.081273        -1.405699         0.761843
 H        -3.188352        -2.111705        -0.679318
 H        -1.818459        -0.742121         1.714908
 H        -2.324970         1.197047        -0.827741
 H        -1.462271        -0.737991        -2.246242
 H        -0.187628         0.309377        -1.856256
 H        -0.464995        -3.101833        -0.806396
 H         1.089061        -2.254392        -0.846225
 H         0.479646        -3.083642         0.618573
