19
Iteration:  4218charge 0 multiplicity 1
 C        -3.066303        -1.781661         0.158098
 C        -1.931530        -0.882808         0.647045
 C        -1.828667         0.335112        -0.173083
 C        -0.950429        -0.412921        -1.203495
 C        -0.435544        -1.087506         0.060832
 C         0.117883        -2.526824        -0.102054
 C         0.269445         0.046893         0.725976
 O         1.339411         0.172207         1.213231
 O        -0.608734         1.044712         0.572316
 H        -3.546092        -2.432773         0.926770
 H        -3.842591        -1.071944        -0.205455
 H        -2.894646        -2.433825        -0.785105
 H        -1.912359        -0.564299         1.703824
 H        -2.590738         1.126825        -0.428584
 H        -1.543338        -1.137391        -1.824597
 H        -0.278578         0.065986        -1.867289
 H         1.196957        -2.685380        -0.280550
 H        -0.225651        -3.159065         0.816876
 H        -0.460540        -3.118142        -0.924695
