19
Iteration:  1347charge 0 multiplicity 1
 C        -3.299328        -1.545214         0.479698
 C        -2.030782        -0.715554         0.702566
 C        -1.653811         0.381229        -0.337994
 C        -0.983334        -0.649939        -1.198863
 C        -0.520458        -1.195004         0.201355
 C         0.112294        -2.538777         0.188915
 C         0.315329        -0.034493         0.598093
 O         1.475311         0.063684         0.937702
 O        -0.577484         1.111535         0.282853
 H        -4.198785        -1.027880         0.853161
 H        -3.360694        -1.879867        -0.501256
 H        -3.323940        -2.452048         1.094610
 H        -1.829957        -0.387145         1.717136
 H        -2.395253         1.154861        -0.673905
 H        -1.688280        -1.345282        -1.640507
 H        -0.128441        -0.336084        -1.882287
 H         0.909959        -2.461167         0.950028
 H        -0.543773        -3.285805         0.732697
 H         0.608002        -2.870239        -0.751910
