19
Iteration:   426
 C        -3.116169        -1.478182         1.177321
 C        -1.801844        -0.649762         1.083887
 C        -1.838503         0.480766        -0.002627
 C        -1.494169        -0.602699        -1.078526
 C        -0.562628        -1.210748         0.051045
 C         0.114007        -2.626634         0.104704
 C         0.397358        -0.061532         0.098027
 O         1.593764         0.004518         0.378317
 O        -0.446290         1.059062         0.047366
 H        -3.366701        -1.637961         2.284877
 H        -3.916892        -0.912333         0.766504
 H        -3.147149        -2.480082         0.691311
 H        -1.485436        -0.365245         2.123572
 H        -2.632041         1.289681        -0.080672
 H        -2.172473        -1.479414        -1.323311
 H        -0.997657        -0.289096        -1.985571
 H        -0.220748        -3.061246         1.110518
 H        -0.306655        -3.256676        -0.691931
 H         1.213808        -2.701235         0.086182
