19
Iteration:  1635charge 0 multiplicity 1
 C        -3.203755        -1.548847         0.243689
 C        -2.000540        -0.698348         0.658708
 C        -1.566504         0.438809        -0.444663
 C        -0.943468        -0.691002        -1.234666
 C        -0.569057        -1.277172         0.183222
 C         0.113990        -2.678807         0.289991
 C         0.238543         0.030986         0.644659
 O         1.217692         0.183968         1.333170
 O        -0.450537         1.101849         0.187240
 H        -3.674705        -1.313161        -0.686448
 H        -2.788237        -2.583406         0.296710
 H        -3.999677        -1.398955         0.953934
 H        -2.016197        -0.360040         1.724970
 H        -2.195897         1.226405        -0.873548
 H        -1.523981        -1.406400        -1.902632
 H        -0.195085        -0.184320        -1.829263
 H         0.336648        -3.038779        -0.695013
 H         1.045274        -2.580735         0.920645
 H        -0.405849        -3.497909         0.718110
