19
Iteration:  2633charge 0 multiplicity 1
 C        -3.194640        -1.478572         0.198354
 C        -2.007066        -0.669330         0.481555
 C        -1.620675         0.278519        -0.610278
 C        -0.726726        -0.728273        -1.278228
 C        -0.476375        -1.244687         0.105930
 C         0.192985        -2.581645         0.341982
 C         0.163455         0.014377         0.791103
 O         0.937375         0.239336         1.652754
 O        -0.410240         1.021042         0.121671
 H        -3.365476        -1.778449        -0.911638
 H        -3.157423        -2.420231         0.788513
 H        -4.174841        -0.965629         0.602764
 H        -2.190692        -0.092053         1.377655
 H        -2.183483         0.915411        -1.213735
 H        -1.110937        -1.524085        -1.924403
 H         0.185163        -0.275117        -1.702192
 H        -0.159366        -3.332545        -0.281934
 H         1.334915        -2.543595         0.204658
 H         0.095338        -2.893188         1.355901
