19
Iteration:  1431
 C        -3.059955        -1.718338         0.561855
 C        -2.050805        -0.603883         0.622434
 C        -1.704975         0.532751        -0.495664
 C        -1.023978        -0.578167        -1.313299
 C        -0.523150        -1.147512         0.036866
 C         0.070477        -2.574438         0.336112
 C         0.264886        -0.031951         0.597506
 O         1.314315        -0.034547         1.197449
 O        -0.467737         1.102058         0.225600
 H        -2.901269        -2.346538         1.473979
 H        -4.137410        -1.396481         0.806029
 H        -2.966883        -2.331542        -0.360657
 H        -1.916041        -0.291622         1.655065
 H        -2.310528         1.371340        -0.945871
 H        -1.764746        -1.101452        -1.955228
 H        -0.134980        -0.410986        -1.947631
 H        -0.110529        -3.338650        -0.444815
 H         1.073592        -2.540634         0.529320
 H        -0.357227        -2.894188         1.304706
