19
Iteration:   354charge 0 multiplicity 1
 C        -3.011051        -1.630187         1.296948
 C        -1.674293        -0.715076         1.076332
 C        -1.714524         0.525104        -0.030644
 C        -1.482671        -0.556402        -1.119750
 C        -0.620649        -1.178287         0.127290
 C        -0.157445        -2.604399         0.126459
 C         0.400070        -0.079732         0.254176
 O         1.599266         0.041944         0.240024
 O        -0.463355         1.109583        -0.014100
 H        -3.861313        -0.988652         1.066290
 H        -3.115269        -2.368740         0.458840
 H        -3.182884        -2.235564         2.183209
 H        -1.230810        -0.492379         2.055452
 H        -2.417642         1.306473        -0.114987
 H        -2.394962        -1.094674        -1.419080
 H        -0.964317        -0.356681        -2.100233
 H        -0.709299        -3.240886        -0.532801
 H         0.901605        -2.578854        -0.133294
 H        -0.366641        -3.164964         1.150084
