19
Iteration:  3764
 C        -3.016468        -1.799534         0.279967
 C        -1.925734        -0.793142         0.588477
 C        -1.766010         0.543694        -0.335010
 C        -1.040732        -0.348319        -1.406026
 C        -0.485166        -1.122425        -0.042529
 C         0.278517        -2.456038         0.096833
 C         0.259427        -0.033471         0.685936
 O         1.218013        -0.142368         1.402532
 O        -0.642618         1.076260         0.500628
 H        -3.327243        -1.739555        -0.763568
 H        -2.787601        -2.848602         0.396880
 H        -3.985192        -1.643957         0.789393
 H        -1.923611        -0.530946         1.681374
 H        -2.444772         1.369183        -0.610551
 H        -1.767885        -1.006797        -1.772342
 H        -0.325960         0.181380        -1.995365
 H         1.106829        -2.628379        -0.726477
 H         0.833757        -2.407703         1.074352
 H        -0.547987        -3.242596         0.118024
