19
Iteration:  4681
 C        -3.099332        -1.832188        -0.057375
 C        -2.003721        -0.958777         0.640843
 C        -1.706567         0.435763        -0.109123
 C        -1.000461        -0.274139        -1.248225
 C        -0.492971        -1.173156         0.014480
 C         0.199932        -2.500530         0.161194
 C         0.273704         0.040807         0.630836
 O         1.325337         0.029098         1.213984
 O        -0.605970         1.088303         0.581253
 H        -3.184421        -2.882471         0.354242
 H        -4.174756        -1.364133         0.047778
 H        -3.004149        -1.974612        -1.169604
 H        -2.356343        -0.626485         1.722341
 H        -2.370284         1.299227        -0.255911
 H        -1.788345        -0.749561        -1.814798
 H        -0.233115         0.296858        -1.733533
 H        -0.450967        -3.399674         0.116596
 H         1.060000        -2.631460        -0.474948
 H         0.635233        -2.363979         1.146700
