19
Iteration:   794
 C        -3.096137        -1.531941         0.932516
 C        -1.747795        -0.711343         0.896971
 C        -1.761584         0.456099        -0.103336
 C        -1.487355        -0.614247        -1.211249
 C        -0.521800        -1.197013         0.012257
 C        -0.015481        -2.639257         0.206328
 C         0.405972         0.055195         0.303135
 O         1.532915        -0.019274         0.785603
 O        -0.460165         1.132702         0.013929
 H        -2.697916        -2.560477         1.187425
 H        -3.659591        -1.300071         1.812804
 H        -3.698649        -1.512772         0.009167
 H        -1.358699        -0.425098         1.885457
 H        -2.485844         1.235228        -0.102725
 H        -2.223942        -1.442274        -1.513168
 H        -1.025109        -0.263039        -2.153440
 H         0.537313        -2.943403        -0.746924
 H         0.647395        -2.744307         1.142138
 H        -0.807433        -3.326866         0.259692
