19
Iteration:  2262charge 0 multiplicity 1
 C        -3.216840        -1.672460         0.003857
 C        -2.086525        -0.658700         0.329893
 C        -1.461342         0.490194        -0.607746
 C        -0.551244        -0.777521        -1.179762
 C        -0.558947        -1.257152         0.248716
 C        -0.022180        -2.653183         0.587703
 C         0.091762        -0.006924         0.853678
 O         1.225986         0.237283         1.233566
 O        -0.602340         1.159928         0.376252
 H        -3.158961        -2.132399        -0.963339
 H        -3.153418        -2.364606         0.762555
 H        -4.234703        -1.295981         0.093082
 H        -2.388719        -0.107293         1.257804
 H        -1.821916         1.311743        -1.354146
 H        -1.049155        -1.555803        -1.832198
 H         0.517824        -0.524069        -1.505514
 H        -0.502911        -3.376824        -0.089038
 H         1.139772        -2.750082         0.403540
 H         0.017268        -2.783146         1.681933
