19
Iteration:  2229charge 0 multiplicity 1
 C        -3.083613        -1.747110        -0.003023
 C        -2.062128        -0.683998         0.438310
 C        -1.617890         0.394089        -0.575616
 C        -0.640269        -0.689908        -1.294668
 C        -0.473667        -1.110969         0.212208
 C        -0.191833        -2.565517         0.624063
 C         0.234713         0.048312         0.801433
 O         1.275820         0.140575         1.406509
 O        -0.564235         1.132956         0.226705
 H        -2.780008        -2.347464        -0.857582
 H        -3.162524        -2.454046         0.771581
 H        -4.105378        -1.402692        -0.175415
 H        -2.329756        -0.153759         1.374708
 H        -2.324384         1.158303        -1.058378
 H        -0.793039        -1.528347        -2.012811
 H         0.259903        -0.141433        -1.688190
 H        -0.506576        -3.314799        -0.147774
 H         0.914344        -2.715856         0.813971
 H        -0.853408        -2.867725         1.463971
