19
Iteration:  3390charge 0 multiplicity 1
 C        -3.100965        -1.689543         0.131053
 C        -1.977320        -0.772710         0.581262
 C        -1.752163         0.448856        -0.360850
 C        -0.995166        -0.499544        -1.384698
 C        -0.490849        -1.181763         0.070037
 C         0.231886        -2.544264         0.305675
 C         0.227516         0.005233         0.665513
 O         1.249553         0.004634         1.310350
 O        -0.542335         1.103788         0.463564
 H        -3.670341        -1.292754        -0.759011
 H        -2.663046        -2.704318        -0.069735
 H        -3.787476        -1.858507         0.976605
 H        -2.164479        -0.287939         1.590875
 H        -2.472716         1.245206        -0.498181
 H        -1.549729        -1.305159        -1.910135
 H        -0.191460         0.074016        -1.857035
 H         1.262097        -2.436637         0.579921
 H        -0.248005        -2.939349         1.129000
 H         0.140266        -3.087771        -0.611376
