19
Iteration:   397
 C        -2.935899        -1.461526         1.216942
 C        -1.768370        -0.656521         1.038675
 C        -1.702127         0.481319        -0.164693
 C        -1.473190        -0.643179        -1.172549
 C        -0.667396        -1.247380         0.049362
 C         0.025589        -2.532171         0.157085
 C         0.356750        -0.049656         0.263428
 O         1.535754        -0.053734         0.222123
 O        -0.515241         1.079624         0.264888
 H        -3.382186        -1.124020         2.160262
 H        -3.749668        -1.379433         0.460540
 H        -2.647987        -2.510993         1.332900
 H        -1.315725        -0.294407         1.969525
 H        -2.528106         1.108734        -0.347994
 H        -2.284561        -1.306064        -1.440697
 H        -1.124985        -0.613319        -2.208414
 H        -0.703874        -3.177881         0.556420
 H         0.183301        -2.872013        -0.838845
 H         0.901017        -2.598734         0.907443
