19
Iteration:   728charge 0 multiplicity 1
 C        -3.264745        -1.467314         1.193199
 C        -1.831095        -0.791016         0.881423
 C        -1.759512         0.424766        -0.217423
 C        -1.217213        -0.623870        -1.198758
 C        -0.537909        -1.192700         0.047117
 C         0.023423        -2.541706         0.040465
 C         0.361881        -0.013517         0.317735
 O         1.533135         0.006886         0.580302
 O        -0.451013         1.064676         0.172498
 H        -3.245795        -2.016987         2.178081
 H        -4.054713        -0.753101         1.404738
 H        -3.621409        -2.244108         0.493538
 H        -1.551025        -0.455597         1.897821
 H        -2.454026         1.205011        -0.558270
 H        -2.083605        -1.188963        -1.700977
 H        -0.562404        -0.090315        -1.938604
 H         1.038752        -2.405724         0.522056
 H        -0.476044        -3.306059         0.731191
 H         0.100808        -3.090411        -0.830727
