19
Iteration:  3480charge 0 multiplicity 1
 C        -3.076993        -1.769307        -0.006660
 C        -1.962184        -0.834840         0.593687
 C        -1.660995         0.426279        -0.186188
 C        -0.981962        -0.408205        -1.341841
 C        -0.525741        -1.122378         0.142881
 C         0.068950        -2.451538         0.316752
 C         0.255082        -0.013841         0.692465
 O         1.361788         0.038862         1.181648
 O        -0.610753         1.090058         0.474609
 H        -2.563037        -2.776332        -0.259600
 H        -3.817815        -2.056135         0.752768
 H        -3.506771        -1.478522        -1.034905
 H        -2.210327        -0.742261         1.705806
 H        -2.437892         1.147700        -0.481771
 H        -1.759968        -1.179131        -1.773483
 H        -0.243976         0.060501        -2.005845
 H         1.052859        -2.632825        -0.082700
 H         0.244312        -2.697786         1.340204
 H        -0.478674        -3.277638        -0.142119
