19
Iteration:  2592charge 0 multiplicity 1
 C        -3.229640        -1.552246         0.197026
 C        -1.984018        -0.666452         0.362283
 C        -1.568677         0.342670        -0.670424
 C        -0.746750        -0.700223        -1.354833
 C        -0.394943        -1.208823         0.047918
 C         0.215726        -2.469883         0.535746
 C         0.135515         0.007043         0.733489
 O         0.989545         0.006233         1.618766
 O        -0.513695         1.099747         0.223445
 H        -3.096048        -2.436360        -0.432000
 H        -3.362208        -1.960589         1.195863
 H        -4.096716        -0.961654        -0.074627
 H        -1.973818        -0.247271         1.342950
 H        -2.209626         1.101638        -1.014178
 H        -1.427436        -1.411664        -1.939651
 H         0.010946        -0.195628        -1.884989
 H        -0.381097        -3.330181         0.343273
 H         1.229319        -2.702406         0.231954
 H         0.246938        -2.241347         1.586536
