19
Iteration:   232charge 0 multiplicity 1
 C        -2.951530        -1.474856         1.393448
 C        -1.662010        -0.699136         1.184880
 C        -1.749914         0.484062        -0.028543
 C        -1.639287        -0.679578        -1.052627
 C        -0.648499        -1.201265         0.049496
 C        -0.103308        -2.631606        -0.098216
 C         0.408293        -0.056595         0.143117
 O         1.615519         0.023711         0.264933
 O        -0.421714         1.148233         0.076785
 H        -2.906959        -2.505891         0.947594
 H        -3.275641        -1.637152         2.386725
 H        -3.774115        -0.965743         0.845424
 H        -1.139142        -0.501050         2.121485
 H        -2.566513         1.253070        -0.117830
 H        -2.588983        -1.244955        -1.123667
 H        -1.201229        -0.656708        -2.033290
 H         0.716148        -2.851415         0.549774
 H        -0.803687        -3.469467         0.098843
 H         0.300741        -2.721454        -1.240237
