19
Iteration:   720
 C        -3.171332        -1.488848         1.135325
 C        -1.840152        -0.734587         0.914230
 C        -1.702414         0.429537        -0.151130
 C        -1.232330        -0.640082        -1.243750
 C        -0.627288        -1.209542         0.018359
 C        -0.037925        -2.584662         0.109329
 C         0.390510        -0.031972         0.244875
 O         1.550544         0.047093         0.590359
 O        -0.494508         1.054975         0.218249
 H        -3.208303        -1.840421         2.183013
 H        -3.885756        -0.682779         1.074973
 H        -3.538959        -2.211414         0.412075
 H        -1.424386        -0.389688         1.857826
 H        -2.528794         1.077525        -0.315054
 H        -2.043053        -1.245536        -1.709028
 H        -0.646102        -0.266955        -2.056527
 H         0.966346        -2.350477         0.543962
 H        -0.543261        -3.377427         0.633090
 H         0.306368        -2.890327        -0.876154
