19
Iteration:  1925charge 0 multiplicity 1
 C        -3.175052        -1.667606         0.285216
 C        -1.988773        -0.711394         0.376154
 C        -1.529580         0.426754        -0.632007
 C        -0.566419        -0.563681        -1.396754
 C        -0.468207        -1.206047         0.151178
 C         0.030440        -2.511332         0.659071
 C         0.111186         0.021519         0.696789
 O         1.018957        -0.061297         1.503815
 O        -0.523011         1.170295         0.136313
 H        -3.671586        -1.826353        -0.710942
 H        -2.826378        -2.607708         0.671470
 H        -3.950753        -1.281559         0.979399
 H        -2.144610        -0.305801         1.373902
 H        -2.134333         0.976892        -1.306056
 H        -1.180472        -1.082379        -2.216108
 H         0.247024        -0.105838        -1.873252
 H         0.619579        -3.033959        -0.066764
 H         0.645747        -2.421311         1.575335
 H        -0.820678        -3.175868         0.698780
