19
Iteration:  1458
 C        -3.115625        -1.654932         0.504711
 C        -1.990546        -0.668254         0.663585
 C        -1.643644         0.423051        -0.476458
 C        -0.878571        -0.626124        -1.324917
 C        -0.595483        -1.144582         0.178564
 C        -0.000835        -2.520700         0.281212
 C         0.254002        -0.020470         0.606059
 O         1.308203         0.041497         1.195550
 O        -0.511246         1.094136         0.218713
 H        -2.774434        -2.681955         0.831857
 H        -3.884657        -1.377321         1.195113
 H        -3.585744        -1.681470        -0.488532
 H        -1.891403        -0.331297         1.722819
 H        -2.349074         1.125554        -0.889468
 H        -1.661148        -1.185260        -1.856664
 H         0.050538        -0.504995        -1.976171
 H        -0.717159        -3.321482         0.047830
 H         0.820401        -2.586408        -0.574339
 H         0.577489        -2.739347         1.205856
