19
Iteration:  1758charge 0 multiplicity 1
 C        -3.112958        -1.700491         0.092770
 C        -2.044490        -0.642208         0.524017
 C        -1.574709         0.438747        -0.409766
 C        -0.865495        -0.664081        -1.215245
 C        -0.531637        -1.175170         0.315588
 C        -0.070596        -2.739430         0.492994
 C         0.240150         0.046477         0.657736
 O         1.276815         0.183747         1.241075
 O        -0.476586         1.149109         0.223950
 H        -3.391944        -2.334295         0.896583
 H        -4.010008        -1.198305        -0.381341
 H        -2.606327        -2.300342        -0.721613
 H        -2.401242        -0.010138         1.360141
 H        -2.117059         1.297478        -0.967692
 H        -1.296072        -1.445101        -1.749770
 H         0.034548        -0.318192        -1.825815
 H        -0.717259        -3.472651         1.076888
 H        -0.067870        -3.148236        -0.483232
 H         0.975432        -2.813869         0.906440
