19
Iteration:  3852charge 0 multiplicity 1
 C        -3.038980        -1.756368         0.205804
 C        -1.840076        -0.861578         0.632092
 C        -1.696973         0.443590        -0.216744
 C        -0.981186        -0.442603        -1.374088
 C        -0.538607        -1.177276        -0.055751
 C         0.174782        -2.541408        -0.134965
 C         0.163117         0.002525         0.820546
 O         1.244511         0.095529         1.388885
 O        -0.620347         1.135949         0.561403
 H        -2.827345        -2.769884        -0.146502
 H        -3.428013        -1.878848         1.223239
 H        -3.812606        -1.191067        -0.368131
 H        -1.754431        -0.673408         1.751574
 H        -2.563185         1.126910        -0.376993
 H        -1.734738        -0.995335        -1.896506
 H        -0.244475        -0.122887        -2.140977
 H         1.312535        -2.558350        -0.566894
 H         0.180140        -3.124246         0.830599
 H        -0.335761        -3.175128        -0.975944
