19
Iteration:  2518
 C        -3.071969        -1.629714        -0.101166
 C        -2.014169        -0.760316         0.464278
 C        -1.567366         0.303302        -0.572935
 C        -0.637116        -0.647769        -1.194883
 C        -0.548693        -1.220854         0.248455
 C        -0.205609        -2.609813         0.625658
 C         0.191626         0.068395         0.751431
 O         1.270591         0.323612         1.303501
 O        -0.551464         1.044330         0.343391
 H        -2.756537        -1.920797        -1.076236
 H        -3.119224        -2.579596         0.448438
 H        -4.003625        -1.143107        -0.079405
 H        -2.279872        -0.374916         1.495049
 H        -2.100465         1.037504        -1.258825
 H        -1.198972        -1.348995        -1.926303
 H         0.225371        -0.210067        -1.647981
 H        -1.039858        -3.320340         0.175322
 H         0.718461        -2.994636         0.168897
 H        -0.024077        -2.723379         1.751952
