19
Iteration:  2930charge 0 multiplicity 1
 C        -3.176194        -1.633205        -0.092535
 C        -2.071156        -0.795236         0.490705
 C        -1.537548         0.316654        -0.455463
 C        -0.741809        -0.642675        -1.259228
 C        -0.551444        -1.193783         0.309819
 C         0.060409        -2.535256         0.490293
 C         0.237631         0.086110         0.791049
 O         1.275454         0.222992         1.357319
 O        -0.618214         1.074077         0.279030
 H        -4.103688        -1.137535         0.004245
 H        -3.065671        -1.778254        -1.180326
 H        -3.258121        -2.603493         0.369455
 H        -2.346990        -0.522258         1.531694
 H        -2.360129         0.964539        -0.921690
 H        -1.161668        -1.543582        -1.797148
 H         0.059475        -0.295432        -1.859008
 H        -0.578283        -3.398809         0.056036
 H         1.018273        -2.495943        -0.177334
 H         0.328312        -2.826748         1.551226
