19
Iteration:  3543charge 0 multiplicity 1
 C        -3.133803        -1.664868         0.307161
 C        -1.977927        -0.792247         0.546278
 C        -1.708095         0.389885        -0.367892
 C        -0.932689        -0.516434        -1.405816
 C        -0.393437        -1.150347        -0.002000
 C         0.258350        -2.551063        -0.107908
 C         0.245305         0.030182         0.749091
 O         1.150345         0.068928         1.528045
 O        -0.615438         1.083951         0.511821
 H        -3.332926        -2.164482         1.305112
 H        -4.040462        -1.053343         0.198563
 H        -3.157896        -2.436414        -0.530766
 H        -1.895983        -0.477201         1.649600
 H        -2.414597         1.166319        -0.714327
 H        -1.347853        -1.319525        -2.201928
 H        -0.053164        -0.116376        -1.909441
 H         0.807919        -2.646637        -1.089504
 H         0.861190        -2.699938         0.917371
 H        -0.595116        -3.299190         0.169367
