19
Iteration:  2550charge 0 multiplicity 1
 C        -3.081592        -1.755665        -0.043999
 C        -2.079051        -0.723545         0.405805
 C        -1.575006         0.438116        -0.479342
 C        -0.729809        -0.688832        -1.199026
 C        -0.523835        -1.161712         0.215493
 C        -0.063301        -2.602110         0.547646
 C         0.169071         0.113420         0.779718
 O         1.188846         0.150601         1.466636
 O        -0.427478         1.183876         0.146745
 H        -2.716085        -2.494440        -0.717638
 H        -3.201164        -2.292838         0.892923
 H        -4.008202        -1.424557        -0.382154
 H        -2.360665        -0.400009         1.422059
 H        -2.231646         1.036693        -1.071947
 H        -1.444421        -1.449509        -1.688958
 H         0.121757        -0.460324        -1.801739
 H        -0.973400        -3.295259         0.378308
 H         0.711369        -2.946778        -0.145309
 H         0.213343        -2.707609         1.632291
