19
Iteration:  4112
 C        -3.123511        -1.811636         0.167778
 C        -1.971408        -0.959648         0.613246
 C        -1.746792         0.496971        -0.179071
 C        -0.948322        -0.388559        -1.277872
 C        -0.513389        -1.160981         0.033882
 C         0.105173        -2.571485        -0.012595
 C         0.295407         0.031701         0.699317
 O         1.382220         0.208791         1.245152
 O        -0.648910         1.028716         0.564686
 H        -2.952971        -2.895598         0.283892
 H        -4.092676        -1.671556         0.666407
 H        -3.263038        -1.662931        -0.897154
 H        -2.031722        -0.678432         1.685278
 H        -2.454793         1.374706        -0.240571
 H        -1.309468        -1.083946        -2.085116
 H        -0.003760         0.220435        -1.602738
 H         0.914049        -2.595710        -0.726837
 H         0.568784        -2.793119         0.918165
 H        -0.587945        -3.308139        -0.437855
