19
Iteration:   547charge 0 multiplicity 1
 C        -2.921175        -1.478324         1.075405
 C        -1.780780        -0.585520         0.908447
 C        -1.843787         0.385971        -0.144740
 C        -1.510322        -0.698876        -1.139679
 C        -0.571097        -1.163961         0.066408
 C        -0.034047        -2.572878         0.140304
 C         0.401338        -0.025943         0.238032
 O         1.550689        -0.033180         0.608100
 O        -0.457907         1.075517         0.055420
 H        -2.614941        -2.556346         1.087164
 H        -3.253377        -1.204475         2.066045
 H        -3.766824        -1.322943         0.402967
 H        -1.354859        -0.159730         1.853409
 H        -2.622588         1.124528        -0.155784
 H        -2.440182        -1.274312        -1.154939
 H        -1.001401        -0.487069        -2.006247
 H         0.297296        -2.871556        -0.861666
 H         0.822427        -2.621139         0.774130
 H        -0.730723        -3.293717         0.652664
