19
Iteration:  2750charge 0 multiplicity 1
 C        -3.166517        -1.710520        -0.196776
 C        -2.133008        -0.720201         0.395130
 C        -1.663490         0.376121        -0.546531
 C        -0.757007        -0.664945        -1.158395
 C        -0.598421        -1.244705         0.322463
 C         0.061802        -2.565479         0.665111
 C         0.257807         0.069726         0.816327
 O         1.400778         0.195500         1.262050
 O        -0.607317         1.146120         0.317807
 H        -2.676339        -2.392620        -0.885417
 H        -3.644992        -2.301749         0.541973
 H        -3.930886        -1.220827        -0.755453
 H        -2.437481        -0.297959         1.410826
 H        -2.231918         1.108004        -1.098924
 H        -1.179056        -1.475683        -1.707813
 H         0.256226        -0.374754        -1.578680
 H        -0.489766        -3.454304         0.284199
 H         1.133648        -2.598176         0.220558
 H         0.176111        -2.590513         1.772244
