19
Iteration:  2311charge 0 multiplicity 1
 C        -3.171692        -1.519608        -0.164134
 C        -1.999614        -0.787853         0.493887
 C        -1.555991         0.392465        -0.438548
 C        -0.794936        -0.715019        -1.350485
 C        -0.517367        -1.253234         0.128911
 C         0.102810        -2.519966         0.729165
 C         0.193416         0.052784         0.737904
 O         1.115399         0.156301         1.505659
 O        -0.458793         1.075185         0.149373
 H        -2.987222        -1.842580        -1.246947
 H        -3.380752        -2.561197         0.449566
 H        -4.142179        -0.965317        -0.119006
 H        -2.238680        -0.547769         1.555746
 H        -2.411743         0.980855        -0.617663
 H        -1.581513        -1.318923        -1.819810
 H         0.004279        -0.323503        -1.904704
 H        -0.618202        -3.363591         0.724065
 H         0.904177        -2.945762         0.206018
 H         0.555630        -2.268295         1.697022
