19
Iteration:  4958charge 0 multiplicity 1
 C        -3.103648        -1.881779         0.254761
 C        -1.977593        -0.786716         0.610893
 C        -1.677586         0.530880        -0.301800
 C        -0.989492        -0.310691        -1.328862
 C        -0.449211        -1.118493        -0.085615
 C         0.302283        -2.448605        -0.029410
 C         0.149896        -0.097717         0.758108
 O         1.199987        -0.047853         1.417661
 O        -0.583767         1.110342         0.501337
 H        -3.136040        -2.848447         0.893644
 H        -4.087535        -1.356388         0.425865
 H        -3.130622        -2.390715        -0.806911
 H        -1.940423        -0.571565         1.758266
 H        -2.363519         1.256279        -0.783772
 H        -1.708684        -1.018932        -1.668809
 H        -0.169012         0.087898        -1.886846
 H        -0.142614        -3.246253        -0.591143
 H         1.270001        -2.299475        -0.489588
 H         0.176848        -2.913728         0.965364
