19
Iteration:  4979charge 0 multiplicity 1
 C        -3.084749        -1.810005         0.398408
 C        -1.975072        -0.893714         0.452931
 C        -1.654292         0.395804        -0.265142
 C        -0.965100        -0.362998        -1.382503
 C        -0.506182        -1.146209        -0.037058
 C         0.255485        -2.474948        -0.185639
 C         0.264721         0.078107         0.698240
 O         1.104389        -0.001419         1.604652
 O        -0.551054         1.118831         0.468828
 H        -3.097132        -2.654675         1.087848
 H        -4.040752        -1.280007         0.624636
 H        -3.213226        -2.306862        -0.627847
 H        -1.987416        -0.497454         1.485076
 H        -2.322290         1.269346        -0.253435
 H        -1.537515        -1.049745        -1.969166
 H        -0.115595         0.093199        -1.860382
 H        -0.281767        -3.106235        -0.891341
 H         1.278681        -2.327741        -0.583235
 H         0.128400        -3.111329         0.721145
