19
Iteration:   349charge 0 multiplicity 1
 C        -2.996910        -1.630445         1.261832
 C        -1.649599        -0.671161         1.064704
 C        -1.705859         0.519192        -0.036120
 C        -1.518032        -0.560193        -1.062944
 C        -0.606860        -1.198259         0.123262
 C        -0.171006        -2.619920         0.111959
 C         0.371193        -0.025165         0.228556
 O         1.585743         0.038895         0.256141
 O        -0.447006         1.073075         0.000754
 H        -3.847431        -0.998884         0.883288
 H        -2.955866        -2.399999         0.500926
 H        -3.235570        -2.089072         2.252099
 H        -1.113884        -0.381184         2.000811
 H        -2.511477         1.339541         0.004122
 H        -2.302298        -1.302858        -1.312555
 H        -1.054833        -0.430976        -2.027214
 H        -0.619108        -3.226532        -0.736616
 H         0.929520        -2.696444         0.017867
 H        -0.478716        -3.032493         1.010572
