19
Iteration:  1520charge 0 multiplicity 1
 C        -3.190555        -1.514546         0.220362
 C        -1.960806        -0.753750         0.703379
 C        -1.657760         0.387124        -0.302946
 C        -0.987364        -0.665072        -1.248396
 C        -0.563111        -1.253066         0.105323
 C         0.104220        -2.558147         0.359308
 C         0.259513         0.007773         0.625466
 O         1.340491         0.135452         1.138378
 O        -0.476242         1.087038         0.266862
 H        -3.028459        -2.582943        -0.137078
 H        -3.849581        -1.693601         1.060368
 H        -3.671662        -1.071275        -0.685629
 H        -2.107148        -0.564094         1.752463
 H        -2.564659         0.992190        -0.599721
 H        -1.732890        -1.248633        -1.693016
 H        -0.238813        -0.426672        -2.052035
 H         0.322476        -2.573746         1.425766
 H        -0.434745        -3.367224         0.023144
 H         1.121976        -2.486185        -0.087142
