19
Iteration:  2494
 C        -3.247015        -1.626329        -0.084404
 C        -1.987671        -0.758968         0.358178
 C        -1.578316         0.450974        -0.522467
 C        -0.547002        -0.693954        -1.302047
 C        -0.535509        -1.216161         0.233833
 C        -0.025865        -2.647609         0.750950
 C         0.179755         0.040126         0.761902
 O         1.291661         0.156470         1.249322
 O        -0.682542         1.188155         0.384274
 H        -3.271485        -1.785023        -1.150479
 H        -3.277598        -2.549687         0.412899
 H        -4.092037        -1.090062         0.245573
 H        -2.248298        -0.445947         1.373423
 H        -2.137058         1.043779        -1.227971
 H        -0.941199        -1.524323        -2.005794
 H         0.420015        -0.331877        -1.711485
 H        -0.557154        -3.433120         0.124088
 H         1.116463        -2.827800         0.639053
 H        -0.174963        -2.798543         1.859282
