19
Iteration:   151charge 0 multiplicity 1
 C        -2.914754        -1.549604         1.571744
 C        -1.745824        -0.670921         1.052712
 C        -1.787746         0.444212        -0.005487
 C        -1.530070        -0.484426        -1.157705
 C        -0.682589        -1.195089         0.030320
 C        -0.083996        -2.546159        -0.016280
 C         0.409743        -0.094279         0.168400
 O         1.594234        -0.104778        -0.011700
 O        -0.473758         1.058860         0.258411
 H        -2.474091        -2.197782         2.312915
 H        -3.731155        -0.849872         1.987289
 H        -3.354167        -2.079865         0.715023
 H        -1.250930        -0.230812         1.968018
 H        -2.494115         1.266212        -0.029341
 H        -2.381506        -0.967858        -1.613603
 H        -0.886512        -0.032915        -1.954176
 H        -0.715780        -3.469267         0.332735
 H         0.351271        -2.699641        -1.025867
 H         0.730272        -2.519604         0.628520
