19
Iteration:  4911charge 0 multiplicity 1
 C        -3.120280        -1.816630        -0.011132
 C        -1.996900        -0.973623         0.580362
 C        -1.681652         0.473184        -0.183837
 C        -0.935884        -0.328920        -1.238580
 C        -0.441264        -1.164396         0.120766
 C         0.136172        -2.542756         0.150911
 C         0.231187         0.072985         0.759810
 O         1.366567         0.093121         1.111279
 O        -0.649544         1.063760         0.593351
 H        -3.141221        -2.867004         0.147993
 H        -4.122294        -1.346263         0.072487
 H        -2.790202        -1.793965        -1.050374
 H        -2.124129        -0.910477         1.632083
 H        -2.416204         1.266748        -0.352685
 H        -1.788429        -0.686586        -1.810878
 H        -0.313601         0.389464        -1.746206
 H        -0.662061        -3.321563         0.002413
 H         1.032169        -2.804433        -0.489175
 H         0.248246        -2.735153         1.235654
