19
Iteration:  1584charge 0 multiplicity 1
 C        -3.092554        -1.741242         0.270989
 C        -1.978468        -0.750945         0.588605
 C        -1.616309         0.491272        -0.441069
 C        -0.861047        -0.525711        -1.284365
 C        -0.516973        -1.209595         0.074111
 C        -0.104117        -2.611225         0.470794
 C         0.271479        -0.016366         0.598464
 O         1.338060         0.113308         1.140325
 O        -0.542831         1.134742         0.380201
 H        -2.819303        -2.477105        -0.478654
 H        -3.319508        -2.247064         1.239948
 H        -4.033098        -1.205669        -0.037524
 H        -2.089561        -0.224628         1.536945
 H        -2.394775         1.290422        -0.727561
 H        -1.669524        -1.033922        -1.755753
 H        -0.039226        -0.270778        -1.997024
 H         1.020864        -2.818595         0.261571
 H        -0.319938        -2.851080         1.507470
 H        -0.590127        -3.421134        -0.168184
