19
Iteration:  2640charge 0 multiplicity 1
 C        -3.147689        -1.521662         0.168171
 C        -2.029478        -0.605690         0.500493
 C        -1.676179         0.256919        -0.660307
 C        -0.740853        -0.697491        -1.300308
 C        -0.440537        -1.189253         0.213611
 C         0.181600        -2.624033         0.355604
 C         0.157640        -0.007143         0.780404
 O         0.971920         0.252325         1.658881
 O        -0.438007         0.987318         0.113492
 H        -3.240888        -1.570220        -0.892826
 H        -3.118631        -2.519466         0.568006
 H        -3.955814        -0.969846         0.563869
 H        -2.058388        -0.032553         1.495172
 H        -2.150555         1.128361        -1.249501
 H        -1.238235        -1.518225        -1.771178
 H         0.172547        -0.263611        -1.809986
 H        -0.259284        -3.363488        -0.458088
 H         1.280198        -2.638440         0.159084
 H         0.049886        -3.086197         1.398910
