19
Iteration:  2053charge 0 multiplicity 1
 C        -3.053652        -1.823225        -0.021068
 C        -2.149265        -0.693350         0.408756
 C        -1.491211         0.497931        -0.614791
 C        -0.696349        -0.612457        -1.280850
 C        -0.640838        -1.145803         0.211276
 C        -0.025661        -2.412956         0.632189
 C         0.151698        -0.056528         0.774627
 O         1.176948         0.001127         1.439508
 O        -0.460619         1.160336         0.250298
 H        -2.701050        -2.310306        -0.943401
 H        -3.099664        -2.563653         0.762882
 H        -4.063160        -1.340666        -0.166449
 H        -2.428416        -0.273727         1.389089
 H        -2.096561         1.257792        -1.011187
 H        -1.250730        -1.317722        -1.991232
 H         0.304452        -0.418098        -1.660881
 H        -0.759121        -3.254501         0.480958
 H         0.862575        -2.716485         0.130530
 H         0.316711        -2.347001         1.698517
