19
Iteration:  3747charge 0 multiplicity 1
 C        -3.059313        -1.822619         0.131842
 C        -1.957294        -0.847586         0.529320
 C        -1.692940         0.420507        -0.151211
 C        -0.992338        -0.343807        -1.305129
 C        -0.532109        -1.155819        -0.040947
 C         0.157730        -2.456847         0.192665
 C         0.219833         0.015392         0.685297
 O         1.245391        -0.041584         1.285202
 O        -0.540937         1.134359         0.459409
 H        -3.694194        -1.574433        -0.746189
 H        -2.676334        -2.897368         0.202096
 H        -3.803657        -1.857148         0.952199
 H        -1.940678        -0.807993         1.614006
 H        -2.526898         1.128826        -0.249164
 H        -1.692010        -0.815434        -2.073887
 H        -0.196017         0.343874        -1.802458
 H         0.865755        -2.524521        -0.572192
 H         0.721640        -2.472263         1.111578
 H        -0.366123        -3.380222         0.196777
