19
Iteration:  4741
 C        -3.074080        -1.801646         0.359259
 C        -1.936659        -0.831989         0.515129
 C        -1.714636         0.521713        -0.289646
 C        -0.842529        -0.394427        -1.281605
 C        -0.410447        -1.124958        -0.052919
 C         0.164007        -2.519046        -0.226640
 C         0.156394         0.017259         0.764951
 O         1.121651         0.055768         1.528042
 O        -0.590430         1.024323         0.479075
 H        -2.635980        -2.646397         0.902082
 H        -3.895461        -1.513211         0.936616
 H        -3.270858        -2.163833        -0.646292
 H        -2.128150        -0.521990         1.496418
 H        -2.436512         1.368133        -0.296112
 H        -1.462542        -1.104558        -1.888349
 H        -0.082556        -0.122009        -2.074779
 H        -0.533307        -3.253527        -0.601321
 H         0.914626        -2.377209        -1.031960
 H         0.606903        -3.008147         0.688030
