19
Iteration:  2093charge 0 multiplicity 1
 C        -3.088080        -1.648289        -0.049075
 C        -1.897408        -0.769541         0.469352
 C        -1.499134         0.431400        -0.526267
 C        -0.759107        -0.722299        -1.321131
 C        -0.525303        -1.216005         0.128712
 C        -0.051635        -2.576343         0.563817
 C         0.222212         0.064146         0.757729
 O         1.059177         0.164104         1.620109
 O        -0.504197         1.148384         0.172543
 H        -3.031046        -1.952070        -1.063695
 H        -3.289434        -2.572309         0.565732
 H        -3.975297        -1.064002        -0.047228
 H        -2.242397        -0.495911         1.487311
 H        -2.143958         1.123437        -1.104977
 H        -1.393295        -1.357170        -1.943507
 H         0.068488        -0.269197        -1.965108
 H        -1.051150        -3.069138         0.784261
 H         0.555631        -3.180872        -0.172191
 H         0.492534        -2.573889         1.552444
