19
Iteration:  4639charge 0 multiplicity 1
 C        -3.137522        -1.758437         0.041392
 C        -2.040032        -0.857290         0.583685
 C        -1.678970         0.418229        -0.199136
 C        -0.762441        -0.345018        -1.153640
 C        -0.531135        -1.193359         0.101796
 C         0.180086        -2.559322         0.078204
 C         0.224009         0.067092         0.725012
 O         1.365289         0.136491         1.021417
 O        -0.751958         1.002469         0.713335
 H        -3.344653        -2.652428         0.674767
 H        -4.188018        -1.287413        -0.196298
 H        -2.754803        -2.011549        -0.981305
 H        -2.076069        -0.938947         1.714449
 H        -2.427490         1.109208        -0.619019
 H        -1.603709        -0.710179        -1.814979
 H         0.102669         0.023558        -1.744994
 H        -0.427686        -3.143144        -0.654567
 H         1.222921        -2.501870        -0.220685
 H         0.318918        -3.032276         1.017555
