19
Iteration:  4123charge 0 multiplicity 1
 C        -3.092541        -1.828652         0.074986
 C        -1.991686        -0.893281         0.673605
 C        -1.707973         0.429020        -0.164859
 C        -0.936486        -0.293337        -1.232587
 C        -0.509093        -1.209519         0.043490
 C         0.134551        -2.564410         0.054457
 C         0.274746        -0.026044         0.715637
 O         1.380182         0.192088         1.132391
 O        -0.660517         1.058185         0.592514
 H        -2.909974        -2.897544         0.244128
 H        -4.073626        -1.488905         0.435359
 H        -3.136912        -1.684703        -0.992661
 H        -2.137293        -0.750818         1.768392
 H        -2.588275         1.087700        -0.375067
 H        -1.755599        -0.716694        -1.834212
 H        -0.177169         0.172760        -1.980752
 H         1.037909        -2.487859        -0.526032
 H         0.375305        -2.895208         1.044480
 H        -0.517389        -3.366522        -0.302480
