19
Iteration:  1536
 C        -3.250248        -1.687020         0.231159
 C        -2.017814        -0.735858         0.612858
 C        -1.650325         0.456672        -0.353220
 C        -0.947803        -0.652517        -1.209952
 C        -0.522527        -1.122476         0.229052
 C         0.158874        -2.505262         0.389857
 C         0.277543         0.043343         0.603873
 O         1.356778        -0.068374         1.095164
 O        -0.553381         1.197063         0.274938
 H        -2.864281        -2.646546        -0.141729
 H        -3.923676        -1.748605         1.127131
 H        -3.825140        -1.208910        -0.555850
 H        -1.943921        -0.414954         1.691238
 H        -2.207355         1.260703        -0.772327
 H        -1.654762        -1.404607        -1.759967
 H        -0.123729        -0.290633        -1.815804
 H         0.757965        -2.700619         1.315696
 H        -0.749237        -3.286750         0.422502
 H         0.797461        -2.838823        -0.436126
