19
Iteration:   280
 C        -3.053770        -1.456814         1.557411
 C        -1.717157        -0.709179         1.061005
 C        -1.807401         0.441031        -0.015452
 C        -1.462678        -0.536322        -1.160206
 C        -0.701339        -1.213155        -0.032135
 C         0.044260        -2.610441        -0.023078
 C         0.385326        -0.040088         0.115897
 O         1.576348        -0.099110         0.294576
 O        -0.478053         1.090348         0.053751
 H        -3.495646        -2.162209         0.848148
 H        -2.854150        -2.183487         2.455927
 H        -3.813171        -0.728320         1.912298
 H        -1.248543        -0.271007         1.950123
 H        -2.461431         1.264437         0.092976
 H        -2.258978        -1.073261        -1.717874
 H        -0.917216         0.031527        -2.041828
 H         1.126729        -2.467878        -0.452809
 H         0.236167        -3.042352         1.000605
 H        -0.436229        -3.396605        -0.667688
