19
Iteration:   162charge 0 multiplicity 1
 C        -2.843061        -1.551280         1.456057
 C        -1.756715        -0.637976         0.982664
 C        -1.854517         0.566251         0.059321
 C        -1.545201        -0.553260        -1.112122
 C        -0.677015        -1.186856        -0.032880
 C        -0.072718        -2.579176         0.052433
 C         0.386812        -0.096059         0.085800
 O         1.630193        -0.096697         0.033178
 O        -0.457972         1.057073         0.304528
 H        -2.490050        -2.354784         2.098042
 H        -3.466429        -0.895888         2.203630
 H        -3.552351        -2.060938         0.768952
 H        -1.221593        -0.341182         1.936721
 H        -2.594462         1.353268        -0.053079
 H        -2.350497        -1.254433        -1.249993
 H        -1.121307        -0.103948        -2.064927
 H        -0.793881        -3.344227         0.600954
 H         0.015488        -3.014139        -0.988005
 H         0.870868        -2.555080         0.441205
