19
Iteration:  3321
 C        -3.066201        -1.720055         0.367373
 C        -1.925500        -0.690633         0.531393
 C        -1.596696         0.449313        -0.480768
 C        -0.820258        -0.562459        -1.442784
 C        -0.455385        -1.168476         0.074585
 C         0.084149        -2.556738         0.022861
 C         0.199321        -0.027162         0.788945
 O         1.071944         0.126265         1.585975
 O        -0.597108         1.047235         0.342512
 H        -3.901402        -1.295779         0.882744
 H        -3.308949        -1.904815        -0.720722
 H        -2.903582        -2.692658         0.869654
 H        -1.803298        -0.445927         1.564429
 H        -2.412860         1.168555        -0.810433
 H        -1.326608        -1.313934        -1.967249
 H         0.038814        -0.066811        -1.923157
 H         0.741412        -2.735131        -0.842486
 H         0.716404        -2.657357         0.973865
 H        -0.790826        -3.176195        -0.164946
