19
Iteration:  4546charge 0 multiplicity 1
 C        -3.023116        -1.939380         0.309786
 C        -2.017401        -0.821454         0.641280
 C        -1.727114         0.497417        -0.297214
 C        -0.946124        -0.326049        -1.359358
 C        -0.566979        -1.090645        -0.131889
 C         0.236794        -2.398916        -0.035368
 C         0.279602         0.003290         0.685900
 O         1.140400        -0.142889         1.510631
 O        -0.545114         1.131999         0.407321
 H        -2.685360        -2.928624         0.674603
 H        -3.848235        -1.693419         0.975785
 H        -3.404583        -1.886904        -0.751440
 H        -1.965033        -0.554468         1.765203
 H        -2.460595         1.311227        -0.337386
 H        -1.640402        -0.798753        -2.055624
 H        -0.113623         0.090374        -1.938965
 H        -0.007380        -3.170308        -0.740638
 H         1.339243        -2.207107        -0.019061
 H         0.112934        -2.744061         1.034005
