19
Iteration:  4088
 C        -3.102872        -1.790489         0.332638
 C        -1.920070        -0.906450         0.609360
 C        -1.674226         0.385870        -0.296541
 C        -0.887173        -0.357349        -1.282726
 C        -0.401476        -1.133099        -0.005065
 C         0.116203        -2.541594        -0.148775
 C         0.218161         0.008848         0.755199
 O         1.236284         0.104223         1.389650
 O        -0.645720         1.116507         0.495159
 H        -2.882160        -2.827329         0.522910
 H        -3.879397        -1.653644         0.986819
 H        -3.501986        -1.725517        -0.684345
 H        -1.983471        -0.430019         1.576786
 H        -2.596098         0.994052        -0.502339
 H        -1.719717        -0.968029        -1.729503
 H        -0.171254         0.066771        -1.997803
 H         0.715189        -2.579694        -1.056523
 H         0.781507        -2.824830         0.713807
 H        -0.705839        -3.229779        -0.496020
