19
Iteration:  3364charge 0 multiplicity 1
 C        -3.091827        -1.742057         0.186079
 C        -1.911583        -0.843510         0.633239
 C        -1.608446         0.503427        -0.290396
 C        -1.050789        -0.536029        -1.345691
 C        -0.519496        -1.149092        -0.014361
 C         0.236264        -2.409347         0.224680
 C         0.221950        -0.004381         0.677416
 O         1.110621        -0.058487         1.504633
 O        -0.492956         1.126715         0.233920
 H        -3.910710        -1.200788        -0.222131
 H        -2.749163        -2.530611        -0.519375
 H        -3.585983        -2.164261         1.054448
 H        -2.041318        -0.519220         1.630590
 H        -2.357243         1.318797        -0.511889
 H        -1.775890        -1.092788        -1.934334
 H        -0.255000        -0.193510        -2.036139
 H         1.359153        -2.336266         0.191847
 H        -0.078156        -2.762009         1.314005
 H        -0.115492        -3.103052        -0.585208
