19
Iteration:  3706charge 0 multiplicity 1
 C        -3.079499        -1.690938        -0.038087
 C        -1.992665        -0.815808         0.577675
 C        -1.772478         0.355162        -0.137467
 C        -0.896722        -0.516404        -1.222794
 C        -0.542222        -1.226629         0.183934
 C         0.082602        -2.610694         0.095983
 C         0.296099         0.075463         0.757294
 O         1.439996         0.230264         1.077152
 O        -0.657557         1.072975         0.630882
 H        -3.707885        -1.134277        -0.812909
 H        -2.628630        -2.589797        -0.511744
 H        -3.595072        -2.054521         0.871396
 H        -2.273213        -0.514431         1.590350
 H        -2.503130         1.111852        -0.390234
 H        -1.548970        -1.201055        -1.880925
 H        -0.308398        -0.081618        -1.978836
 H         1.060102        -2.598473        -0.491063
 H         0.228171        -3.004990         1.189363
 H        -0.691988        -3.281393        -0.453785
