19
Iteration:  2877
 C        -3.029071        -1.643980         0.235813
 C        -1.930297        -0.643689         0.426143
 C        -1.539935         0.381563        -0.651743
 C        -0.801999        -0.737866        -1.412786
 C        -0.465443        -1.201959         0.093015
 C         0.071224        -2.522281         0.408445
 C         0.187916         0.042025         0.760516
 O         0.953904         0.163958         1.663228
 O        -0.497752         1.067327         0.234555
 H        -3.567299        -1.864717         1.163698
 H        -3.858510        -1.259782        -0.497144
 H        -2.719629        -2.598694        -0.231600
 H        -2.035883        -0.226389         1.402071
 H        -2.409506         1.038713        -1.019127
 H        -1.450168        -1.435391        -1.957352
 H         0.028843        -0.476692        -2.062695
 H        -0.680337        -3.321284         0.117101
 H         1.024240        -2.689354        -0.051206
 H         0.144470        -2.608197         1.511577
