19
Iteration:  1718charge 0 multiplicity 1
 C        -3.163191        -1.659808         0.296494
 C        -1.957776        -0.699872         0.551291
 C        -1.609788         0.379119        -0.506388
 C        -0.850745        -0.661144        -1.372453
 C        -0.463224        -1.184535         0.122593
 C        -0.004985        -2.547945         0.451589
 C         0.293955         0.047301         0.599425
 O         1.173603         0.106134         1.421437
 O        -0.460035         1.098304         0.211105
 H        -4.014100        -1.392989         0.944877
 H        -3.587557        -1.375792        -0.635464
 H        -3.004566        -2.728294         0.275952
 H        -2.003769        -0.327700         1.572022
 H        -2.409679         1.053100        -0.623205
 H        -1.522077        -1.329848        -1.934325
 H        -0.145617        -0.168565        -2.028702
 H        -0.954298        -3.122185         0.540109
 H         0.532056        -3.089061        -0.357981
 H         0.456744        -2.525989         1.458291
