19
Iteration:   203charge 0 multiplicity 1
 C        -2.870825        -1.537608         1.248907
 C        -1.621780        -0.733322         1.159973
 C        -1.844390         0.531365         0.166622
 C        -1.657498        -0.519902        -0.977724
 C        -0.630849        -1.185115         0.087394
 C        -0.171159        -2.633306        -0.001074
 C         0.412294        -0.068704         0.069049
 O         1.612193         0.004638         0.231982
 O        -0.439279         1.069512        -0.079331
 H        -2.510656        -2.550986         1.079466
 H        -3.167896        -1.397694         2.342182
 H        -3.595093        -1.225109         0.497474
 H        -1.186754        -0.662033         2.170644
 H        -2.501419         1.323653         0.408220
 H        -2.456255        -1.277993        -1.164479
 H        -1.008202        -0.231931        -1.888553
 H        -0.054793        -3.001267         1.064378
 H        -0.777467        -3.364617        -0.583699
 H         0.803011        -2.699583        -0.415206
