19
Iteration:  4956charge 0 multiplicity 1
 C        -3.075183        -1.878906         0.248167
 C        -1.989686        -0.789990         0.628368
 C        -1.667553         0.512229        -0.301100
 C        -0.998849        -0.301654        -1.326803
 C        -0.465975        -1.114631        -0.077498
 C         0.303065        -2.434154        -0.009982
 C         0.154490        -0.099285         0.750404
 O         1.199103        -0.053167         1.392695
 O        -0.592086         1.098684         0.510728
 H        -3.205319        -2.813044         0.820298
 H        -4.040101        -1.353551         0.389769
 H        -3.083071        -2.295192        -0.821768
 H        -1.975161        -0.526369         1.694130
 H        -2.319937         1.285531        -0.753548
 H        -1.677498        -1.039364        -1.732835
 H        -0.151690         0.074731        -1.867680
 H        -0.184938        -3.257844        -0.566187
 H         1.314795        -2.296362        -0.498542
 H         0.169979        -2.890689         1.000693
