19
Iteration:  2646
 C        -3.123559        -1.565079         0.147731
 C        -2.011691        -0.581294         0.523638
 C        -1.620253         0.315486        -0.691722
 C        -0.737185        -0.715709        -1.308586
 C        -0.433406        -1.200297         0.282119
 C         0.141815        -2.658135         0.373812
 C         0.185850         0.011944         0.778425
 O         1.012172         0.246514         1.668151
 O        -0.505008         1.011904         0.089956
 H        -3.221566        -1.484257        -0.980079
 H        -3.051822        -2.649016         0.457373
 H        -4.105436        -1.070683         0.514277
 H        -2.057613        -0.172699         1.495809
 H        -2.260813         1.127854        -1.008519
 H        -1.342980        -1.538887        -1.849585
 H        -0.016883        -0.352404        -2.009960
 H        -0.350684        -3.196243        -0.367084
 H         1.193098        -2.564625         0.129399
 H        -0.036530        -3.174355         1.279271
