19
Iteration:  3768charge 0 multiplicity 1
 C        -2.990621        -1.810416         0.313763
 C        -1.947523        -0.732781         0.584054
 C        -1.752880         0.541033        -0.307665
 C        -1.012712        -0.404456        -1.415485
 C        -0.468071        -1.107369        -0.088463
 C         0.289388        -2.458313         0.056561
 C         0.225715        -0.030582         0.690893
 O         1.185064        -0.136216         1.414794
 O        -0.634851         1.067416         0.514536
 H        -3.309255        -1.698249        -0.719171
 H        -2.943150        -2.906045         0.597555
 H        -4.010160        -1.585530         0.632020
 H        -1.890306        -0.499826         1.652639
 H        -2.402960         1.418879        -0.525321
 H        -1.736500        -1.184648        -1.742942
 H        -0.320301         0.239409        -2.084649
 H         0.992619        -2.585986        -0.680381
 H         0.804825        -2.512673         0.978591
 H        -0.424955        -3.216240         0.073016
