19
Iteration:    78charge 0 multiplicity 1
 C        -2.867980        -1.491316         1.398093
 C        -1.567295        -0.699689         1.167738
 C        -1.726992         0.511717         0.197830
 C        -1.728847        -0.585592        -0.913995
 C        -0.672380        -1.226259        -0.068365
 C        -0.111128        -2.654064        -0.109686
 C         0.405933        -0.062736        -0.017312
 O         1.574863         0.028057         0.176007
 O        -0.443362         1.079068         0.031311
 H        -2.792279        -1.600940         2.470428
 H        -3.741568        -0.959459         1.124013
 H        -2.867983        -2.482725         0.948220
 H        -1.090557        -0.490779         2.120643
 H        -2.541768         1.259473         0.274396
 H        -2.689748        -1.061647        -0.948066
 H        -1.440598        -0.446684        -1.936118
 H         0.395712        -2.982723        -0.993828
 H         0.583996        -2.750344         0.721347
 H        -0.989904        -3.364155         0.039478
