19
Iteration:  1920
 C        -3.162484        -1.687443         0.280695
 C        -1.989551        -0.708480         0.385174
 C        -1.565490         0.350836        -0.649721
 C        -0.534297        -0.576761        -1.411866
 C        -0.455263        -1.157760         0.101646
 C        -0.019538        -2.538523         0.655954
 C         0.147253         0.053599         0.717495
 O         1.035699        -0.052560         1.521918
 O        -0.527588         1.180321         0.150147
 H        -3.761373        -1.890571        -0.597826
 H        -3.004667        -2.707886         0.789568
 H        -3.877095        -1.185725         1.022163
 H        -2.064842        -0.193412         1.375059
 H        -2.199515         1.123406        -1.208630
 H        -1.116060        -0.990045        -2.194086
 H         0.281047        -0.032647        -2.041048
 H         0.709062        -2.986568        -0.084491
 H         0.469602        -2.491557         1.642190
 H        -0.929512        -3.178192         0.634094
