19
Iteration:   412
 C        -3.052606        -1.464271         1.209013
 C        -1.724334        -0.682219         0.983842
 C        -1.744154         0.419557        -0.064292
 C        -1.490564        -0.723257        -1.140028
 C        -0.631285        -1.232624         0.049619
 C         0.026362        -2.571443         0.142381
 C         0.336751        -0.001401         0.231371
 O         1.515152        -0.026404         0.287760
 O        -0.411194         1.140242         0.168751
 H        -3.356152        -1.436705         2.245475
 H        -3.877301        -1.063625         0.576391
 H        -2.938704        -2.525780         0.938938
 H        -1.321949        -0.335372         1.949791
 H        -2.488293         1.242466        -0.113359
 H        -2.496769        -1.154206        -1.227853
 H        -0.892429        -0.364776        -2.032077
 H        -0.349584        -3.322749         0.948922
 H         0.078475        -3.155287        -0.839746
 H         1.037972        -2.301899         0.306891
