19
Iteration:  1081charge 0 multiplicity 1
 C        -3.230623        -1.530428         0.795893
 C        -1.934286        -0.693193         0.695577
 C        -1.657819         0.485058        -0.212925
 C        -1.125269        -0.577622        -1.196040
 C        -0.583492        -1.252802         0.044996
 C         0.118499        -2.598537         0.190810
 C         0.298032        -0.071972         0.472273
 O         1.469521         0.062231         0.658700
 O        -0.507857         1.052531         0.385374
 H        -3.027935        -2.574574         0.788416
 H        -3.757813        -1.284642         1.732540
 H        -3.976750        -1.398664         0.056298
 H        -1.901920        -0.365340         1.731171
 H        -2.455240         1.187350        -0.567843
 H        -1.909741        -1.080742        -1.745936
 H        -0.282460        -0.280864        -1.885303
 H        -0.526393        -3.495660         0.362937
 H         0.720456        -2.839013        -0.705581
 H         0.807134        -2.493032         1.063825
