19
Iteration:  4764charge 0 multiplicity 1
 C        -3.125626        -1.814855         0.438009
 C        -1.906027        -0.892154         0.638695
 C        -1.740302         0.451775        -0.389550
 C        -0.913756        -0.363655        -1.384411
 C        -0.457964        -1.176994        -0.081349
 C         0.201823        -2.489634        -0.205913
 C         0.259754        -0.054426         0.758847
 O         1.119612         0.037398         1.613430
 O        -0.579374         1.152347         0.449963
 H        -2.961147        -2.726554         1.014347
 H        -4.030809        -1.414361         0.727253
 H        -3.053760        -2.104222        -0.584032
 H        -1.845747        -0.670488         1.654200
 H        -2.385328         1.266711        -0.791738
 H        -1.427846        -0.760069        -2.290583
 H        -0.136102         0.298295        -1.880981
 H        -0.426929        -3.096646        -0.880189
 H         1.043065        -2.209600        -0.856989
 H         0.445379        -3.201565         0.649004
