19
Iteration:  4451charge 0 multiplicity 1
 C        -3.037371        -1.879124        -0.040254
 C        -2.022245        -0.899753         0.653528
 C        -1.783506         0.439066        -0.131146
 C        -1.000438        -0.377260        -1.239125
 C        -0.523197        -1.141455         0.037902
 C         0.182602        -2.494010         0.012420
 C         0.243558         0.030169         0.681707
 O         1.318258         0.060465         1.285614
 O        -0.562359         1.110682         0.610296
 H        -3.319807        -2.558206         0.801724
 H        -3.895068        -1.160620        -0.257240
 H        -2.862835        -2.357580        -0.997030
 H        -2.238551        -0.669287         1.700140
 H        -2.293701         1.332821        -0.434379
 H        -1.487484        -0.936151        -2.020582
 H        -0.194887         0.214612        -1.690617
 H        -0.592522        -3.265656         0.120693
 H         0.741552        -2.652863        -0.904533
 H         1.021101        -2.479790         0.709015
