19
Iteration:  3823charge 0 multiplicity 1
 C        -3.171965        -1.738138         0.341934
 C        -1.967750        -0.798151         0.695642
 C        -1.691134         0.305143        -0.220825
 C        -0.928529        -0.414585        -1.255899
 C        -0.357292        -1.145213        -0.079478
 C         0.211955        -2.505309        -0.317939
 C         0.271790         0.005835         0.735024
 O         1.114340         0.147636         1.570553
 O        -0.534310         1.050617         0.380326
 H        -2.861934        -2.639908        -0.189090
 H        -3.463551        -2.171780         1.328730
 H        -4.093610        -1.403205        -0.091676
 H        -1.959626        -0.575709         1.775562
 H        -2.459842         1.031679        -0.510932
 H        -1.479634        -0.943804        -2.066398
 H        -0.306028         0.179813        -2.004939
 H         1.040524        -2.727592        -0.949408
 H         0.174480        -3.092782         0.571145
 H        -0.587590        -3.000376        -0.795891
