19
Iteration:  1612charge 0 multiplicity 1
 C        -3.114267        -1.613908         0.190481
 C        -1.923548        -0.799747         0.680753
 C        -1.680283         0.379164        -0.365977
 C        -0.901411        -0.638135        -1.316247
 C        -0.451190        -1.165538         0.081946
 C        -0.110435        -2.575371         0.391080
 C         0.303600        -0.006534         0.664039
 O         1.331525         0.181981         1.285240
 O        -0.534819         1.093224         0.220761
 H        -3.368639        -1.752195        -0.871028
 H        -3.000435        -2.585836         0.742797
 H        -3.929158        -1.003445         0.551135
 H        -2.062158        -0.352919         1.684092
 H        -2.402570         1.144138        -0.510279
 H        -1.493912        -1.412717        -1.944991
 H        -0.189487        -0.144898        -1.965708
 H         0.426919        -2.994311        -0.413565
 H         0.438059        -2.687965         1.375854
 H        -0.940030        -3.230061         0.385000
