19
Iteration:  4813
 C        -3.055068        -1.844920         0.192166
 C        -1.948883        -0.797456         0.605072
 C        -1.734288         0.471233        -0.223783
 C        -1.081288        -0.339255        -1.413491
 C        -0.501987        -1.136577        -0.019473
 C         0.289281        -2.511532        -0.007616
 C         0.237374         0.039435         0.694495
 O         1.226195        -0.031368         1.422225
 O        -0.585668         1.069008         0.534163
 H        -3.129401        -2.816977         0.733625
 H        -3.978118        -1.154363         0.315728
 H        -2.856833        -2.049239        -0.910326
 H        -1.894811        -0.713984         1.767050
 H        -2.394319         1.342577        -0.237938
 H        -1.798634        -0.955742        -1.948818
 H        -0.381788         0.083845        -2.119151
 H        -0.029884        -3.401513        -0.615383
 H         1.368910        -2.322150        -0.153236
 H         0.067398        -2.848433         0.995221
