19
Iteration:   749charge 0 multiplicity 1
 C        -3.174709        -1.461328         1.175851
 C        -1.980826        -0.598003         0.893489
 C        -1.773323         0.424947        -0.184506
 C        -1.231665        -0.627892        -1.285992
 C        -0.567903        -1.206614         0.068626
 C         0.185858        -2.658196         0.050281
 C         0.328873        -0.047314         0.405242
 O         1.516197        -0.045867         0.620939
 O        -0.468188         1.108723         0.124862
 H        -3.026655        -2.305241         1.892940
 H        -3.858797        -0.816051         1.779959
 H        -3.748103        -1.797775         0.289114
 H        -1.646677        -0.110777         1.839174
 H        -2.634891         1.100605        -0.292585
 H        -2.058874        -1.334486        -1.646310
 H        -0.673948        -0.207375        -2.174268
 H         1.294903        -2.501798        -0.090210
 H         0.015190        -3.462667         0.869449
 H        -0.166839        -3.141400        -0.863136
