19
Iteration:  2767
 C        -3.174015        -1.614144        -0.178965
 C        -2.163672        -0.705906         0.543638
 C        -1.593318         0.295878        -0.464321
 C        -0.669895        -0.710652        -1.216329
 C        -0.491807        -1.179335         0.353072
 C         0.062912        -2.627870         0.609279
 C         0.232120         0.051285         0.717590
 O         1.232961         0.323074         1.301213
 O        -0.551548         1.020131         0.269257
 H        -2.664755        -2.455569        -0.675037
 H        -3.933853        -2.045728         0.592687
 H        -3.742289        -1.043654        -0.975557
 H        -2.506148        -0.319313         1.481131
 H        -2.291693         1.066020        -0.959931
 H        -1.151460        -1.361154        -2.001253
 H         0.080533        -0.152918        -1.743398
 H        -0.565935        -3.311598         0.020615
 H         1.003692        -2.632699         0.195633
 H         0.128993        -3.000823         1.623578
