19
Iteration:  3482
 C        -3.078969        -1.782045         0.005817
 C        -1.972313        -0.829224         0.583484
 C        -1.676252         0.424589        -0.190927
 C        -0.998024        -0.400913        -1.326643
 C        -0.522713        -1.117557         0.137003
 C         0.079843        -2.462856         0.314987
 C         0.269470        -0.025184         0.682521
 O         1.360617         0.025694         1.198370
 O        -0.608794         1.095057         0.462397
 H        -2.570813        -2.720801        -0.244783
 H        -3.894675        -2.011852         0.700572
 H        -3.436864        -1.465009        -0.984144
 H        -2.181341        -0.740551         1.633991
 H        -2.439478         1.133585        -0.533384
 H        -1.691086        -1.104996        -1.706408
 H        -0.261971         0.089444        -1.974122
 H         1.073070        -2.586923        -0.106533
 H         0.295356        -2.585943         1.319810
 H        -0.445861        -3.279021        -0.100373
