19
Iteration:   732charge 0 multiplicity 1
 C        -3.293372        -1.464457         1.219582
 C        -1.848098        -0.783894         0.877547
 C        -1.784344         0.403081        -0.244614
 C        -1.230273        -0.586225        -1.199163
 C        -0.524749        -1.210151         0.048213
 C         0.086436        -2.547090         0.034251
 C         0.338975        -0.008772         0.364214
 O         1.531473        -0.010593         0.576120
 O        -0.433251         1.080261         0.150159
 H        -3.156487        -2.108334         2.112747
 H        -4.066940        -0.741026         1.458872
 H        -3.625448        -2.194029         0.484468
 H        -1.611935        -0.437205         1.882568
 H        -2.382547         1.247721        -0.546770
 H        -2.006576        -1.214528        -1.618273
 H        -0.534735        -0.145491        -1.879695
 H         1.099384        -2.568808         0.464217
 H        -0.478130        -3.115203         0.751459
 H        -0.041073        -3.132823        -0.921976
