19
Iteration:  1141
 C        -3.033164        -1.737978         0.594810
 C        -1.854433        -0.634180         0.861465
 C        -1.625520         0.521944        -0.153799
 C        -1.313511        -0.650720        -1.209419
 C        -0.610159        -1.175856         0.101184
 C        -0.098593        -2.589266         0.201980
 C         0.325578         0.001686         0.437956
 O         1.433151         0.086307         0.869455
 O        -0.379841         1.101285         0.207486
 H        -2.709093        -2.757869         0.124988
 H        -3.563050        -1.998692         1.514075
 H        -3.560116        -1.093653        -0.174920
 H        -1.705330        -0.317194         1.933497
 H        -2.373050         1.244086        -0.438909
 H        -2.185004        -1.180731        -1.624872
 H        -0.558172        -0.535573        -2.003169
 H         0.367292        -2.793656         1.149923
 H        -0.893384        -3.371571        -0.039037
 H         0.544672        -2.680007        -0.652222
