19
Iteration:  1074charge 0 multiplicity 1
 C        -3.207134        -1.510621         0.746240
 C        -2.004717        -0.683694         0.774940
 C        -1.717409         0.499963        -0.228852
 C        -1.134556        -0.584241        -1.220288
 C        -0.533761        -1.258931         0.073032
 C         0.134718        -2.629020         0.189596
 C         0.304916        -0.086043         0.479290
 O         1.492882         0.038516         0.667088
 O        -0.513390         1.073622         0.363418
 H        -3.099035        -2.611505         0.995647
 H        -3.713615        -1.291928         1.694131
 H        -3.931327        -1.388358        -0.129720
 H        -1.837719        -0.178188         1.773216
 H        -2.384874         1.315586        -0.403847
 H        -2.041915        -1.098726        -1.694302
 H        -0.447993        -0.414387        -2.018408
 H        -0.370052        -3.591325         0.087641
 H         0.887639        -2.568459        -0.580851
 H         0.857445        -2.600244         1.043871
