19
Iteration:  2538
 C        -3.083182        -1.780278        -0.110637
 C        -2.088582        -0.676832         0.455288
 C        -1.611423         0.393511        -0.517022
 C        -0.697206        -0.718883        -1.254432
 C        -0.508223        -1.162775         0.307282
 C        -0.185587        -2.587129         0.558060
 C         0.314864         0.043504         0.794013
 O         1.318359         0.251667         1.469305
 O        -0.555790         1.145689         0.160587
 H        -2.743684        -2.301852        -0.992645
 H        -3.301153        -2.497712         0.662170
 H        -4.010315        -1.333380        -0.308187
 H        -2.496394        -0.324766         1.393638
 H        -2.267743         1.194456        -0.674590
 H        -1.281670        -1.498820        -1.894090
 H         0.145877        -0.395314        -1.818367
 H        -1.074478        -3.224041         0.282377
 H         0.669450        -2.945205        -0.055745
 H         0.163770        -2.812572         1.586610
