19
Iteration:  2120
 C        -3.336854        -1.548984         0.156521
 C        -1.998003        -0.702429         0.335628
 C        -1.516887         0.346046        -0.665446
 C        -0.524203        -0.660840        -1.380649
 C        -0.444429        -1.233069         0.162599
 C         0.077934        -2.655964         0.470078
 C         0.227079        -0.029254         0.832595
 O         1.071295         0.285812         1.632602
 O        -0.597567         1.032334         0.254188
 H        -3.396582        -1.925543        -0.907272
 H        -3.427298        -2.309344         0.923181
 H        -4.173039        -0.776236         0.250743
 H        -2.265601        -0.129246         1.224139
 H        -2.159210         1.037416        -1.296790
 H        -1.056901        -1.486649        -1.952847
 H         0.280259        -0.191202        -1.937423
 H        -0.860720        -3.240553         0.500314
 H         0.702404        -3.138827        -0.280095
 H         0.646380        -2.773984         1.407157
