19
Iteration:  2644charge 0 multiplicity 1
 C        -3.126144        -1.555157         0.157566
 C        -2.021097        -0.582910         0.518554
 C        -1.650917         0.293578        -0.690879
 C        -0.739381        -0.706751        -1.307153
 C        -0.431276        -1.189092         0.266471
 C         0.151917        -2.653295         0.366930
 C         0.169136        -0.002188         0.773594
 O         1.000796         0.250438         1.668434
 O        -0.480438         0.998540         0.098394
 H        -3.222759        -1.493402        -1.002433
 H        -3.075678        -2.611985         0.487277
 H        -4.083552        -0.983911         0.551987
 H        -2.039367        -0.127651         1.493549
 H        -2.185558         1.103609        -1.067787
 H        -1.303275        -1.506368        -1.798121
 H         0.061286        -0.310163        -1.951758
 H        -0.296211        -3.230884        -0.366540
 H         1.280646        -2.590520         0.121284
 H        -0.008338        -3.141679         1.297334
