19
Iteration:  3748
 C        -3.058351        -1.819628         0.137215
 C        -1.955310        -0.848971         0.530718
 C        -1.693044         0.422520        -0.166423
 C        -1.000965        -0.337159        -1.303363
 C        -0.527925        -1.153543        -0.038436
 C         0.160902        -2.450870         0.190082
 C         0.222433         0.012268         0.683889
 O         1.247009        -0.050385         1.293731
 O        -0.548074         1.133814         0.460502
 H        -3.688730        -1.574491        -0.777424
 H        -2.654930        -2.886113         0.233472
 H        -3.803006        -1.852583         0.978697
 H        -1.935957        -0.792604         1.611042
 H        -2.525100         1.120549        -0.271928
 H        -1.705136        -0.802860        -2.104147
 H        -0.214091         0.316640        -1.826320
 H         0.878733        -2.536072        -0.599716
 H         0.735141        -2.474871         1.133527
 H        -0.357533        -3.409376         0.200016
