19
Iteration:  4688charge 0 multiplicity 1
 C        -3.095172        -1.866915        -0.041745
 C        -1.969133        -0.906419         0.636564
 C        -1.663705         0.455413        -0.134929
 C        -1.045404        -0.271136        -1.219448
 C        -0.502783        -1.139989         0.011116
 C         0.220193        -2.481429         0.149564
 C         0.235216        -0.027135         0.609989
 O         1.264447         0.034221         1.250994
 O        -0.561963         1.090215         0.565566
 H        -3.203652        -2.862484         0.384202
 H        -3.991155        -1.386412         0.191687
 H        -3.025281        -1.864157        -1.089818
 H        -2.254050        -0.814221         1.683035
 H        -2.499148         1.156262        -0.242678
 H        -1.485461        -0.949378        -1.977199
 H        -0.408863         0.458828        -1.802419
 H        -0.608870        -3.206356         0.092685
 H         1.037257        -2.747522        -0.567318
 H         0.737239        -2.585766         1.184636
