19
Iteration:  3082charge 0 multiplicity 1
 C        -3.196966        -1.568479         0.359557
 C        -1.973361        -0.719594         0.375687
 C        -1.616317         0.386896        -0.511955
 C        -0.730203        -0.604683        -1.445661
 C        -0.444357        -1.244829        -0.005909
 C         0.288545        -2.500382         0.287236
 C         0.135780        -0.013314         0.786352
 O         1.022075         0.035697         1.606497
 O        -0.585588         1.087325         0.298663
 H        -2.927531        -2.625962         0.175068
 H        -3.757381        -1.477781         1.337698
 H        -3.892664        -1.292225        -0.509153
 H        -2.003834        -0.370805         1.478625
 H        -2.331826         1.273276        -0.823069
 H        -1.350759        -1.304241        -2.125574
 H         0.057547        -0.039023        -2.015157
 H        -0.443498        -3.346661         0.028686
 H         1.127593        -2.625650        -0.420016
 H         0.659551        -2.650627         1.299074
