19
Iteration:  2543charge 0 multiplicity 1
 C        -3.088565        -1.762018        -0.095246
 C        -2.097673        -0.703159         0.421944
 C        -1.601279         0.407818        -0.482715
 C        -0.703325        -0.722892        -1.237044
 C        -0.507242        -1.169386         0.261490
 C        -0.135042        -2.594660         0.560976
 C         0.282370         0.080335         0.817003
 O         1.252222         0.202024         1.461096
 O        -0.501084         1.175831         0.135971
 H        -2.637706        -2.506961        -0.811684
 H        -3.136612        -2.452033         0.818860
 H        -4.112797        -1.287073        -0.337733
 H        -2.539474        -0.347904         1.427096
 H        -2.383432         1.265857        -0.771153
 H        -1.370845        -1.418880        -1.655442
 H         0.212814        -0.408669        -1.828674
 H        -1.019204        -3.224295         0.195059
 H         0.620130        -3.015675        -0.105203
 H         0.249944        -2.730988         1.605988
