19
Iteration:  3318
 C        -3.075800        -1.731929         0.361869
 C        -1.920331        -0.695624         0.524193
 C        -1.613099         0.445778        -0.492130
 C        -0.769745        -0.568093        -1.444651
 C        -0.454559        -1.156024         0.071202
 C         0.063704        -2.557927         0.035073
 C         0.194972        -0.015149         0.770842
 O         1.067518         0.140884         1.571267
 O        -0.582133         1.046693         0.394670
 H        -3.937727        -1.406223         1.024260
 H        -3.353060        -1.803303        -0.657869
 H        -2.954696        -2.737030         0.877470
 H        -1.814769        -0.422068         1.575792
 H        -2.385471         1.167750        -0.891551
 H        -1.319519        -1.437356        -2.050042
 H         0.025846        -0.101918        -2.064865
 H         0.642091        -2.689110        -0.956166
 H         0.817636        -2.691638         0.993914
 H        -0.906734        -3.189755        -0.164174
