19
Iteration:  4829charge 0 multiplicity 1
 C        -3.113185        -1.802141         0.095165
 C        -2.062918        -0.853573         0.616240
 C        -1.711913         0.452618        -0.178544
 C        -0.996606        -0.339666        -1.184256
 C        -0.433230        -1.105734        -0.096952
 C         0.224535        -2.454284         0.084461
 C         0.262004        -0.050331         0.654638
 O         1.287953         0.026216         1.298394
 O        -0.587920         1.055053         0.534181
 H        -2.986534        -2.691280         0.752787
 H        -4.171436        -1.724974         0.203041
 H        -3.041424        -2.161188        -0.934749
 H        -2.212088        -0.686429         1.680850
 H        -2.518411         1.160704        -0.439954
 H        -1.616808        -0.911862        -1.901960
 H        -0.277276         0.265814        -1.817256
 H        -0.240623        -3.057063        -0.676842
 H         1.298527        -2.399054        -0.122440
 H         0.228420        -2.917573         1.101718
