19
Iteration:  4057
 C        -2.985563        -1.774020         0.420657
 C        -1.909930        -0.789522         0.585161
 C        -1.724679         0.382747        -0.258248
 C        -1.046401        -0.378219        -1.315021
 C        -0.469289        -1.139068        -0.117711
 C         0.235330        -2.431946        -0.162314
 C         0.217123        -0.030835         0.642875
 O         1.028148        -0.057537         1.539859
 O        -0.487871         1.115206         0.435569
 H        -2.586594        -2.639080         1.005049
 H        -3.890538        -1.495874         0.979911
 H        -3.253656        -2.096210        -0.614000
 H        -1.809893        -0.344837         1.548326
 H        -2.595785         1.074178        -0.414514
 H        -1.733874        -0.935660        -1.997468
 H        -0.267996         0.008031        -2.091422
 H         0.962032        -2.316989        -0.922181
 H         0.775389        -2.570250         0.758914
 H        -0.363312        -3.339245        -0.347089
