19
Iteration:  3002charge 0 multiplicity 1
 C        -3.071376        -1.774219        -0.051400
 C        -1.952700        -0.781275         0.486310
 C        -1.664907         0.418623        -0.347731
 C        -0.779848        -0.524163        -1.297924
 C        -0.513533        -1.202337         0.157001
 C        -0.033763        -2.542491         0.547724
 C         0.226854         0.034531         0.682084
 O         1.241715         0.130892         1.300668
 O        -0.549352         1.144591         0.347280
 H        -3.303375        -1.848680        -1.232506
 H        -2.714679        -2.807511         0.150543
 H        -4.085239        -1.690279         0.537578
 H        -2.240655        -0.619579         1.550878
 H        -2.284630         1.187560        -0.659547
 H        -1.463489        -1.164636        -1.991981
 H         0.125946        -0.129593        -1.880429
 H        -0.484919        -3.233255        -0.104840
 H         1.055063        -2.683822         0.673610
 H        -0.520875        -2.615599         1.524389
