19
Iteration:  2981charge 0 multiplicity 1
 C        -3.113445        -1.856448        -0.013553
 C        -2.018340        -0.797369         0.435413
 C        -1.670744         0.450081        -0.498824
 C        -0.746852        -0.389270        -1.323526
 C        -0.574485        -1.162357         0.139720
 C        -0.017669        -2.439145         0.693992
 C         0.210844         0.000596         0.780016
 O         1.369782         0.019741         1.224225
 O        -0.628243         1.077272         0.383594
 H        -3.570166        -1.345811        -0.942831
 H        -2.788766        -2.816295        -0.372133
 H        -3.951027        -1.936357         0.769069
 H        -2.190086        -0.518044         1.526463
 H        -2.317614         1.131355        -0.974498
 H        -1.205326        -1.085347        -2.149104
 H         0.282151        -0.077929        -1.560657
 H        -0.265399        -3.246424         0.094162
 H         1.104825        -2.467549         0.615415
 H        -0.110886        -2.524214         1.755812
