19
Iteration:   878charge 0 multiplicity 1
 C        -3.160256        -1.564318         0.860914
 C        -1.894502        -0.717003         0.886245
 C        -1.698195         0.453930        -0.106804
 C        -1.215162        -0.567885        -1.168132
 C        -0.673250        -1.236489         0.117757
 C         0.033486        -2.538889         0.177828
 C         0.336669        -0.086492         0.435767
 O         1.521791         0.094232         0.523716
 O        -0.442641         1.038097         0.190787
 H        -3.192462        -2.181420         1.762718
 H        -4.030935        -0.909119         0.760043
 H        -3.378690        -2.334634         0.093163
 H        -1.762067        -0.348906         1.917214
 H        -2.414402         1.253762        -0.227127
 H        -1.968150        -1.189822        -1.655891
 H        -0.404398        -0.323892        -1.844512
 H        -0.392115        -3.438132         0.634918
 H         0.135983        -2.738032        -0.893497
 H         1.093568        -2.483507         0.593636
