19
Iteration:   449charge 0 multiplicity 1
 C        -3.062117        -1.444096         1.122179
 C        -1.722070        -0.686910         1.095574
 C        -1.777608         0.415234        -0.019830
 C        -1.551838        -0.674975        -1.118020
 C        -0.604043        -1.265405         0.107354
 C        -0.000757        -2.606369         0.114953
 C         0.398561        -0.005920         0.264644
 O         1.576280         0.071904         0.407486
 O        -0.402285         1.050671        -0.029180
 H        -3.139689        -2.110802         2.041229
 H        -3.886789        -0.741804         1.140363
 H        -3.225287        -2.096386         0.237881
 H        -1.429370        -0.257741         2.094801
 H        -2.588715         1.169779        -0.026871
 H        -2.517178        -1.258935        -1.347433
 H        -1.059947        -0.329685        -2.011117
 H         0.470801        -2.959784         1.043063
 H        -0.682476        -3.296252        -0.325320
 H         0.819333        -2.522682        -0.698200
