19
Iteration:   304
 C        -2.933905        -1.490276         1.364400
 C        -1.670679        -0.676711         1.053284
 C        -1.764997         0.477055        -0.030195
 C        -1.557404        -0.613733        -1.080060
 C        -0.620000        -1.176369         0.007495
 C        -0.035611        -2.592271         0.012306
 C         0.327277        -0.055483         0.206438
 O         1.507260        -0.037449         0.293166
 O        -0.408571         1.053173         0.057578
 H        -3.612809        -1.590322         0.506220
 H        -2.795651        -2.526717         1.735694
 H        -3.471123        -0.930543         2.167193
 H        -1.245057        -0.311330         2.008701
 H        -2.453563         1.352653        -0.083226
 H        -2.458489        -1.240599        -1.189667
 H        -1.272954        -0.359026        -2.125101
 H         0.643932        -2.740852        -0.906241
 H         0.634754        -2.734781         0.885057
 H        -0.782197        -3.302710        -0.017297
