19
Iteration:  1859charge 0 multiplicity 1
 C        -3.130985        -1.627519         0.016695
 C        -2.063566        -0.640491         0.593924
 C        -1.635927         0.348843        -0.540368
 C        -0.800256        -0.783064        -1.171326
 C        -0.551509        -1.187969         0.235967
 C        -0.004827        -2.627404         0.430728
 C         0.275919         0.062610         0.751476
 O         1.194465         0.184453         1.520605
 O        -0.422343         1.163655         0.060423
 H        -2.792953        -2.319701        -0.738031
 H        -3.464211        -2.145787         0.864097
 H        -3.966751        -1.024838        -0.409019
 H        -2.232332        -0.466765         1.661558
 H        -2.196656         1.060500        -1.067197
 H        -1.517544        -1.387454        -1.793994
 H         0.005945        -0.378021        -1.688243
 H         1.072659        -2.731405         0.663624
 H        -0.593855        -3.350323         1.074354
 H        -0.044907        -3.017496        -0.617780
