19
Iteration:  1604
 C        -3.095932        -1.645321         0.202223
 C        -1.910324        -0.765056         0.595694
 C        -1.658865         0.379360        -0.360394
 C        -0.944415        -0.630732        -1.367508
 C        -0.451336        -1.185572         0.095245
 C        -0.131763        -2.614615         0.410344
 C         0.302454         0.106189         0.684250
 O         1.370312         0.125249         1.252972
 O        -0.553607         1.135064         0.276328
 H        -3.175615        -2.018938        -0.776095
 H        -3.243364        -2.485650         0.941012
 H        -3.962680        -1.058040         0.507595
 H        -1.991038        -0.587314         1.707378
 H        -2.470260         1.122019        -0.689446
 H        -1.414277        -1.487586        -1.914816
 H        -0.265283         0.014049        -1.925673
 H         0.728862        -3.081083        -0.205962
 H         0.177780        -2.727146         1.502299
 H        -1.072271        -3.240641         0.306280
