19
Iteration:  1443
 C        -3.067153        -1.686869         0.572771
 C        -2.058309        -0.536679         0.578499
 C        -1.650548         0.443531        -0.452896
 C        -0.975496        -0.605280        -1.307998
 C        -0.552829        -1.200464         0.096382
 C         0.063925        -2.528092         0.295065
 C         0.241348        -0.030333         0.617962
 O         1.304596        -0.010909         1.183663
 O        -0.478686         1.056026         0.229324
 H        -2.494033        -2.508546         1.095687
 H        -4.093910        -1.402931         0.941779
 H        -3.277862        -2.123521        -0.447103
 H        -2.204797         0.018739         1.503719
 H        -2.313954         1.300512        -0.807954
 H        -1.504776        -1.376896        -1.849637
 H        -0.251702         0.023959        -1.917854
 H        -0.476358        -3.325360        -0.252586
 H         1.072822        -2.457140        -0.009170
 H         0.007744        -2.804237         1.374545
