19
Iteration:   206
 C        -2.894760        -1.532141         1.257697
 C        -1.636976        -0.707382         1.138233
 C        -1.830610         0.502382         0.189264
 C        -1.641788        -0.524387        -0.957954
 C        -0.574347        -1.163125         0.098400
 C        -0.168532        -2.635598        -0.034323
 C         0.412776        -0.049667         0.062297
 O         1.586907         0.000946         0.241780
 O        -0.435727         1.046393        -0.098975
 H        -2.592010        -2.569999         1.067287
 H        -3.189613        -1.459637         2.368606
 H        -3.687645        -1.251892         0.540440
 H        -1.229239        -0.593966         2.191032
 H        -2.507296         1.352748         0.426956
 H        -2.401048        -1.241133        -1.173284
 H        -1.042486        -0.225496        -1.835376
 H         0.029752        -2.981561         1.077163
 H        -0.837505        -3.402905        -0.488364
 H         0.751120        -2.725173        -0.513293
