19
Iteration:   867
 C        -3.181164        -1.613908         0.899105
 C        -1.992803        -0.676232         0.873964
 C        -1.726658         0.477633        -0.158459
 C        -1.184122        -0.650155        -1.224905
 C        -0.587352        -1.202869         0.212329
 C         0.036503        -2.582981         0.106675
 C         0.349545         0.011464         0.386155
 O         1.558637         0.019407         0.518613
 O        -0.452659         1.109354         0.265195
 H        -3.030069        -2.217673         1.792867
 H        -4.118594        -1.113500         1.166185
 H        -3.153452        -2.201422        -0.039657
 H        -1.791351        -0.378805         1.914327
 H        -2.457310         1.264382        -0.344811
 H        -2.003074        -1.207176        -1.676486
 H        -0.516250        -0.266670        -1.995853
 H        -0.799253        -3.223362         0.414178
 H         0.467642        -2.928521        -0.820446
 H         0.839054        -2.603820         0.925680
