19
Iteration:  3945
 C        -3.117791        -1.745744         0.016497
 C        -1.986517        -0.903261         0.641663
 C        -1.777711         0.342835        -0.173703
 C        -0.843664        -0.304411        -1.134082
 C        -0.515422        -1.189940         0.096296
 C         0.039231        -2.587966         0.055916
 C         0.249328         0.025556         0.752481
 O         1.474893         0.255917         0.981760
 O        -0.663516         0.982542         0.677030
 H        -3.356256        -2.659276         0.580532
 H        -4.056951        -1.203422         0.050741
 H        -2.905915        -2.023089        -1.029570
 H        -2.109209        -0.893204         1.712397
 H        -2.512404         1.102508        -0.406357
 H        -1.433503        -1.033459        -1.822631
 H        -0.182398         0.358162        -1.726050
 H         0.981957        -2.573622        -0.524724
 H         0.299614        -2.897608         1.094656
 H        -0.585378        -3.294784        -0.474822
