19
Iteration:   256
 C        -2.919373        -1.362585         1.463613
 C        -1.776144        -0.570916         1.048171
 C        -1.774781         0.403384        -0.070865
 C        -1.546056        -0.637429        -1.115008
 C        -0.604015        -1.219479        -0.061773
 C         0.050906        -2.600530        -0.096182
 C         0.331430        -0.133601         0.156227
 O         1.529410        -0.024380         0.253009
 O        -0.446584         1.040981         0.253617
 H        -3.039269        -2.389400         1.090109
 H        -2.752577        -1.584008         2.566702
 H        -3.888423        -0.851214         1.409659
 H        -1.309079        -0.147124         1.928542
 H        -2.527607         1.148293        -0.133103
 H        -2.463714        -1.251927        -1.289372
 H        -1.192084        -0.325920        -2.161790
 H         1.115225        -2.726765         0.094879
 H        -0.459724        -3.249503         0.659631
 H        -0.250101        -3.099631        -1.162035
