19
Iteration:  3573
 C        -3.078532        -1.778804         0.353677
 C        -1.918650        -0.863342         0.600747
 C        -1.633339         0.491978        -0.368749
 C        -0.926082        -0.440404        -1.301794
 C        -0.461926        -1.221225         0.044087
 C         0.143533        -2.543323        -0.206242
 C         0.202265        -0.016342         0.759603
 O         1.091710         0.156981         1.575685
 O        -0.545853         1.097698         0.350502
 H        -3.694697        -1.901740         1.222910
 H        -3.818794        -1.099377        -0.098212
 H        -2.995674        -2.737530        -0.065994
 H        -1.768304        -0.662077         1.642634
 H        -2.330584         1.288780        -0.728845
 H        -1.372369        -1.137785        -1.948806
 H         0.020316        -0.068243        -1.702327
 H         0.853763        -2.856066        -0.968507
 H         0.772631        -2.803583         0.731111
 H        -0.646328        -3.295999        -0.420799
