19
Iteration:  1061charge 0 multiplicity 1
 C        -3.246499        -1.518276         0.726149
 C        -1.956027        -0.617478         0.881855
 C        -1.748573         0.428607        -0.225799
 C        -1.241313        -0.612832        -1.254459
 C        -0.594864        -1.217710         0.159876
 C         0.233039        -2.579242         0.144415
 C         0.344946        -0.020894         0.448181
 O         1.534074        -0.028517         0.716377
 O        -0.492128         1.069880         0.309941
 H        -2.963203        -2.539284         0.870944
 H        -4.131269        -1.163294         1.277707
 H        -3.569939        -1.472506        -0.318557
 H        -1.779001        -0.353250         1.949369
 H        -2.467106         1.227897        -0.491872
 H        -1.984260        -1.389682        -1.526260
 H        -0.675984        -0.235951        -2.103975
 H        -0.389446        -3.335253        -0.362359
 H         1.066557        -2.448614        -0.433742
 H         0.432699        -2.961659         1.182995
