19
Iteration:  2278charge 0 multiplicity 1
 C        -3.238025        -1.558795        -0.063596
 C        -2.109159        -0.700343         0.392519
 C        -1.516442         0.338083        -0.568886
 C        -0.527920        -0.717429        -1.229526
 C        -0.551044        -1.194560         0.275575
 C         0.053626        -2.614076         0.653390
 C         0.167190         0.087617         0.752696
 O         1.250051         0.153569         1.333381
 O        -0.634956         1.102976         0.302411
 H        -3.203460        -1.884945        -1.145857
 H        -3.371722        -2.526690         0.620298
 H        -4.236729        -1.049463         0.010939
 H        -2.246721        -0.293152         1.410992
 H        -2.286420         0.930173        -1.040209
 H        -1.069103        -1.291781        -1.966018
 H         0.356404        -0.422074        -1.762938
 H        -0.655434        -3.376732         0.324159
 H         0.978234        -2.730445         0.143378
 H         0.240281        -2.800637         1.735620
