19
Iteration:  4736charge 0 multiplicity 1
 C        -3.065730        -1.801825         0.338160
 C        -1.923594        -0.813944         0.532834
 C        -1.760257         0.519087        -0.311655
 C        -0.856282        -0.428104        -1.309821
 C        -0.385269        -1.105093        -0.042960
 C         0.168371        -2.523811        -0.167308
 C         0.206038        -0.025745         0.730234
 O         1.111680         0.048780         1.498011
 O        -0.601679         1.064837         0.539674
 H        -2.669022        -2.738084         0.812911
 H        -4.106383        -1.654739         0.885523
 H        -3.214721        -2.051513        -0.769864
 H        -2.033648        -0.649300         1.714506
 H        -2.317366         1.453447        -0.477344
 H        -1.508954        -1.021392        -1.950611
 H        -0.127524        -0.098223        -2.033843
 H        -0.702871        -3.121862        -0.544564
 H         0.867016        -2.420207        -1.005034
 H         0.735171        -3.020813         0.594404
