19
Iteration:  2580
 C        -3.106059        -1.568533         0.164363
 C        -2.039175        -0.634934         0.450523
 C        -1.566007         0.410003        -0.560329
 C        -0.689405        -0.676764        -1.424849
 C        -0.535862        -1.194433         0.053360
 C         0.129982        -2.455781         0.576750
 C         0.213608        -0.027675         0.733129
 O         1.022221         0.036991         1.588622
 O        -0.560039         1.024267         0.189711
 H        -2.751032        -2.353988        -0.543544
 H        -3.409125        -2.023748         1.107347
 H        -4.067595        -1.237879        -0.296484
 H        -2.135230        -0.178625         1.400627
 H        -2.226031         1.058166        -1.031111
 H        -1.252306        -1.398940        -2.082251
 H         0.203794        -0.488599        -1.989583
 H        -0.436329        -3.308492         0.490947
 H         1.093248        -2.545255         0.021708
 H         0.377734        -2.387437         1.602436
