19
Iteration:  1849charge 0 multiplicity 1
 C        -3.181597        -1.621787         0.009389
 C        -2.052976        -0.689408         0.577527
 C        -1.580448         0.343265        -0.457258
 C        -0.824175        -0.704626        -1.199255
 C        -0.518945        -1.162476         0.290184
 C         0.023266        -2.511898         0.433619
 C         0.254446         0.074242         0.715179
 O         1.208416         0.124738         1.478058
 O        -0.447957         1.071244         0.052467
 H        -2.834038        -2.390357        -0.672891
 H        -3.811301        -2.100661         0.696582
 H        -3.823226        -0.980395        -0.565461
 H        -2.370310        -0.256175         1.550423
 H        -2.315052         0.966788        -0.875390
 H        -1.259586        -1.598959        -1.725652
 H         0.018237        -0.457511        -1.762704
 H         0.992304        -2.483440         0.984211
 H        -0.671962        -3.215001         1.059976
 H         0.163422        -3.003171        -0.561134
