19
Iteration:  1408charge 0 multiplicity 1
 C        -3.082669        -1.660208         0.502402
 C        -1.836114        -0.729512         0.646558
 C        -1.620624         0.434034        -0.326173
 C        -1.115566        -0.623005        -1.348424
 C        -0.481157        -1.172677         0.069818
 C        -0.054829        -2.535507         0.339295
 C         0.275909         0.038529         0.523663
 O         1.263212         0.023417         1.176399
 O        -0.443697         1.125582         0.201448
 H        -3.438133        -1.927789         1.498307
 H        -4.007379        -1.118566         0.034083
 H        -2.810848        -2.546238        -0.088720
 H        -1.828883        -0.516492         1.722270
 H        -2.475124         1.073507        -0.516030
 H        -1.807629        -1.257465        -1.976098
 H        -0.421436        -0.176828        -2.010200
 H         0.505265        -2.996291        -0.483595
 H         0.623591        -2.416497         1.115749
 H        -0.775835        -3.180534         0.805819
