19
Iteration:  4568charge 0 multiplicity 1
 C        -2.944742        -1.812206         0.203846
 C        -1.869594        -0.825560         0.542824
 C        -1.744735         0.483825        -0.258526
 C        -1.057373        -0.326385        -1.300596
 C        -0.486935        -1.137817        -0.024014
 C         0.199168        -2.525312         0.045546
 C         0.183644        -0.009645         0.740097
 O         1.151391        -0.050422         1.377904
 O        -0.570738         1.121288         0.476771
 H        -2.518891        -2.754189         0.624655
 H        -3.917180        -1.641669         0.690612
 H        -3.089729        -1.864463        -0.902880
 H        -1.903841        -0.530295         1.646092
 H        -2.464032         1.304435        -0.388382
 H        -1.767508        -1.004204        -1.755669
 H        -0.436750         0.164838        -2.080038
 H        -0.090744        -2.931180        -0.899526
 H         1.307993        -2.507021         0.141206
 H        -0.081663        -3.194160         0.913770
