19
Iteration:  3537charge 0 multiplicity 1
 C        -3.138067        -1.696750         0.294712
 C        -1.919173        -0.812681         0.567465
 C        -1.731059         0.433257        -0.397977
 C        -0.922652        -0.505045        -1.350328
 C        -0.448054        -1.120774        -0.020038
 C         0.265358        -2.522958        -0.043019
 C         0.222848         0.003965         0.744402
 O         1.183031         0.037470         1.507084
 O        -0.629015         1.058215         0.487050
 H        -3.274059        -2.323762         1.172688
 H        -3.941330        -0.936937         0.206993
 H        -3.236807        -2.261639        -0.634043
 H        -2.003985        -0.538135         1.603728
 H        -2.355882         1.215958        -0.835356
 H        -1.516574        -1.102152        -1.984039
 H        -0.021433        -0.150972        -1.929409
 H         0.843336        -2.662958        -0.936733
 H         0.842923        -2.535088         0.804650
 H        -0.468760        -3.247249         0.142275
