19
Iteration:  3549
 C        -3.165130        -1.657950         0.339581
 C        -1.989347        -0.758692         0.532203
 C        -1.659947         0.351079        -0.348421
 C        -0.894068        -0.528724        -1.426554
 C        -0.368258        -1.205758        -0.014001
 C         0.221664        -2.565530        -0.103931
 C         0.238269         0.042345         0.734110
 O         1.128928         0.105927         1.557218
 O        -0.611174         1.105653         0.503908
 H        -3.391223        -2.127629         1.272192
 H        -4.139555        -1.167529         0.118912
 H        -2.951681        -2.478447        -0.322637
 H        -1.901431        -0.457166         1.532757
 H        -2.474404         1.084043        -0.444399
 H        -1.331205        -1.252975        -1.999062
 H        -0.151763         0.115313        -1.976621
 H         0.707988        -2.745032        -1.041224
 H         0.975783        -2.834150         0.577625
 H        -0.542740        -3.300651        -0.190315
