19
Iteration:  1761charge 0 multiplicity 1
 C        -3.142594        -1.696206         0.070121
 C        -2.063787        -0.654582         0.538529
 C        -1.589419         0.457337        -0.408012
 C        -0.824658        -0.648394        -1.227782
 C        -0.530950        -1.180112         0.306018
 C        -0.071226        -2.728419         0.521459
 C         0.246989         0.054938         0.648545
 O         1.292247         0.172471         1.233981
 O        -0.483922         1.143648         0.223465
 H        -3.366202        -2.354344         0.863704
 H        -4.041481        -1.259290        -0.216149
 H        -2.645831        -2.194386        -0.715909
 H        -2.361236        -0.118667         1.452020
 H        -2.125851         1.160374        -0.987386
 H        -1.234434        -1.489758        -1.786657
 H         0.062394        -0.339970        -1.741872
 H        -0.640355        -3.503573         1.076703
 H        -0.168310        -3.151512        -0.509279
 H         0.984568        -2.712071         0.905526
